
  EPA STORM WATER MANAGEMENT MODEL - VERSION 5.1 (Build 5.1.013)
  --------------------------------------------------------------

  
  *********************
  Rainfall File Summary
  *********************
  Station    First        Last         Recording   Periods    Periods    Periods
  ID         Date         Date         Frequency  w/Precip    Missing    Malfunc.
  -------------------------------------------------------------------------------

  
  ERROR 317: cannot open rainfall data file C:\Users\SSinnath\Research\Urban_Pesticide_Modeling\pleasant_swmm\weather\spp1783.dat.

  Analysis begun on:  Wed Jan 15 11:28:05 2020
  Analysis ended on:  Wed Jan 15 11:28:05 2020
  Total elapsed time: < 1 sec