
  EPA STORM WATER MANAGEMENT MODEL - VERSION 5.1 (Build 5.3.0.dev0)
  --------------------------------------------------------------

  
  *********************
  Rainfall File Summary
  *********************
  Station    First        Last         Recording   Periods    Periods    Periods
  ID         Date         Date         Frequency  w/Precip    Missing    Malfunc.
  -------------------------------------------------------------------------------
  swmm_wet   01/01/2004   01/01/2018      60 min    122736          0          0

  
  *********************************************************
  NOTE: The summary statistics displayed in this report are
  based on results found at every computational time step,  
  not just on results from each reporting time step.
  *********************************************************
  
  ****************
  Analysis Options
  ****************
  Flow Units ............... CMS
  Process Models:
    Rainfall/Runoff ........ YES
    RDII ................... NO
    Snowmelt ............... NO
    Groundwater ............ YES
    Flow Routing ........... YES
    Ponding Allowed ........ NO
    Water Quality .......... YES
  Infiltration Method ...... HORTON
  Flow Routing Method ...... DYNWAVE
  Surcharge Method ......... EXTRAN
  Starting Date ............ 01/01/2009 00:00:00
  Ending Date .............. 12/31/2009 23:00:00
  Antecedent Dry Days ...... 5.0
  Report Time Step ......... 00:00:00
  Wet Time Step ............ 00:05:00
  Dry Time Step ............ 01:00:00
  Routing Time Step ........ 60.00 sec
  Variable Time Step ....... YES
  Maximum Trials ........... 8
  Number of Threads ........ 1
  Head Tolerance ........... 0.001500 m
  
  
  **************************        Volume         Depth
  Runoff Quantity Continuity     hectare-m            mm
  **************************     ---------       -------
  Total Precipitation ......      3854.176       492.738
  Evaporation Loss .........       238.076        30.437
  Infiltration Loss ........      2477.688       316.761
  Surface Runoff ...........      1135.872       145.216
  Final Storage ............         2.631         0.336
  Continuity Error (%) .....        -0.002
  
  
  **************************    Bifenthrin
  Runoff Quality Continuity             kg
  **************************    ----------
  Initial Buildup ..........         0.000
  Surface Buildup ..........       258.746
  Wet Deposition ...........         0.000
  Sweeping Removal .........         0.000
  Infiltration Loss ........         0.000
  BMP Removal ..............         0.000
  Surface Runoff ...........       258.571
  Remaining Buildup ........         0.175
  Continuity Error (%) .....         0.000
  
  
  **************************        Volume         Depth
  Groundwater Continuity         hectare-m            mm
  **************************     ---------       -------
  Initial Storage ..........     29918.992      3825.000
  Infiltration .............      2477.688       316.761
  Upper Zone ET ............      1554.044       198.677
  Lower Zone ET ............         0.000         0.000
  Deep Percolation .........        68.099         8.706
  Groundwater Flow .........         0.000         0.000
  Final Storage ............     30774.537      3934.377
  Continuity Error (%) .....         0.000
  
  
  **************************        Volume        Volume
  Flow Routing Continuity        hectare-m      10^6 ltr
  **************************     ---------     ---------
  Dry Weather Inflow .......         0.000         0.000
  Wet Weather Inflow .......      1135.956     11359.676
  Groundwater Inflow .......         0.000         0.000
  RDII Inflow ..............         0.000         0.000
  External Inflow ..........         0.000         0.000
  External Outflow .........      1126.339     11263.508
  Flooding Loss ............        11.356       113.565
  Evaporation Loss .........         1.854        18.543
  Exfiltration Loss ........         0.000         0.000
  Initial Stored Volume ....         0.001         0.006
  Final Stored Volume ......         0.110         1.104
  Continuity Error (%) .....        -0.326
  
  
  **************************    Bifenthrin
  Quality Routing Continuity            kg
  **************************    ----------
  Dry Weather Inflow .......         0.000
  Wet Weather Inflow .......       258.468
  Groundwater Inflow .......         0.000
  RDII Inflow ..............         0.000
  External Inflow ..........         0.000
  External Outflow .........       221.586
  Flooding Loss ............         0.562
  Exfiltration Loss ........         0.000
  Mass Reacted .............         3.670
  Initial Stored Mass ......         0.000
  Final Stored Mass ........         0.000
  Continuity Error (%) .....        12.632
  
  
  *************************
  Highest Continuity Errors
  *************************
  Node J169 (9.45%)
  
  
  ***************************
  Time-Step Critical Elements
  ***************************
  Link C95 (6.76%)
  Link C164 (4.63%)
  Link C175 (3.08%)
  
  
  ********************************
  Highest Flow Instability Indexes
  ********************************
  Link C164 (24)
  Link C165 (18)
  Link C175 (15)
  Link C133 (10)
  Link C180 (10)
  
  
  *************************
  Routing Time Step Summary
  *************************
  Minimum Time Step           :     1.01 sec
  Average Time Step           :    55.87 sec
  Maximum Time Step           :    60.00 sec
  Percent in Steady State     :     0.00
  Average Iterations per Step :     2.76
  Percent Not Converging      :    10.59
  
  
  ***************************
  Subcatchment Runoff Summary
  ***************************
  
  ------------------------------------------------------------------------------------------------------------------------------
                            Total      Total      Total      Total     Imperv       Perv      Total       Total     Peak  Runoff
                           Precip      Runon       Evap      Infil     Runoff     Runoff     Runoff      Runoff   Runoff   Coeff
  Subcatchment                 mm         mm         mm         mm         mm         mm         mm    10^6 ltr      CMS
  ------------------------------------------------------------------------------------------------------------------------------
  S1                       492.74       0.00       6.26     451.79      34.63       0.00      34.63       20.02     0.09   0.070
  S2                       492.74       0.00      13.37     406.85      72.39       0.00      72.39       29.41     0.13   0.147
  S3                       492.74       0.00      12.12     416.86      63.65       0.00      63.65      144.90     0.65   0.129
  S4                       492.74       0.00      12.39     411.58      68.67       0.00      68.67        7.07     0.03   0.139
  S5                       492.74       0.00      20.16     367.14     105.25       0.00     105.25      167.08     0.74   0.214
  S6                       492.74       0.00      13.29     408.18      71.14       0.00      71.14       21.51     0.10   0.144
  S7                       492.74       0.00      35.70     274.31     182.38       0.00     182.38       97.66     0.43   0.370
  S8                       492.74       0.00      25.59     331.27     135.65       0.00     135.65       58.39     0.26   0.275
  S9                       492.74       0.00      29.72     311.46     151.26       0.00     151.26       85.11     0.37   0.307
  S10                      492.74       0.00      14.72     401.34      76.54       0.00      76.54       55.40     0.25   0.155
  S11                      492.74       0.00      21.53     358.81     112.19       0.00     112.19       44.29     0.20   0.228
  S12                      492.74       0.00      22.65     351.96     117.91       0.00     117.91       37.49     0.17   0.239
  S13                      492.74       0.00       6.40     452.09      34.19       0.00      34.19       30.06     0.14   0.069
  S14                      492.74       0.00      25.06     350.48     116.92       0.00     116.92      327.52     1.35   0.237
  S15                      492.74       0.00      33.17     288.30     170.94       0.00     170.94       69.27     0.31   0.347
  S16                      492.74       0.00       0.02     492.59       0.13       0.00       0.13        0.05     0.00   0.000
  S17                      492.74       0.00       0.29     490.77       1.68       0.00       1.68        0.09     0.00   0.003
  S18                      492.74       0.00      30.27     305.00     157.17       0.00     157.17       95.77     0.43   0.319
  S19                      492.74       0.00      46.88     212.12     233.26       0.00     233.26       60.48     0.26   0.473
  S20                      492.74       0.00      30.47     304.12     157.85       0.00     157.85      146.56     0.65   0.320
  S21                      492.74       0.00      24.44     345.16     122.89       0.00     122.89      128.41     0.56   0.249
  S22                      492.74       0.00      33.68     293.03     165.68       0.00     165.68       89.01     0.38   0.336
  S23                      492.74       0.00       1.55     482.44       8.74       0.00       8.74        2.07     0.01   0.018
  S24                      492.74       0.00      19.07     374.48      99.00       0.00      99.00       43.93     0.20   0.201
  S25                      492.74       0.00      30.49     305.15     156.80       0.00     156.80       36.35     0.16   0.318
  S26                      492.74       0.00      25.48     340.14     126.86       0.00     126.86       71.05     0.31   0.257
  S27                      492.74       0.00      33.99     287.46     170.94       0.00     170.94       80.01     0.35   0.347
  S28                      492.74       0.00      31.75     308.50     152.15       0.00     152.15      205.87     0.87   0.309
  S29                      492.74       0.00      35.56     287.17     169.64       0.00     169.64      262.10     1.10   0.344
  S30                      492.74       0.00      30.34     312.10     149.99       0.00     149.99       53.75     0.23   0.304
  S31                      492.74       0.00      17.74     381.03      93.80       0.00      93.80       25.19     0.11   0.190
  S32                      492.74       0.00      40.61     257.95     193.75       0.00     193.75       93.31     0.39   0.393
  S33                      492.74       0.00      29.77     312.20     150.47       0.00     150.47       86.55     0.38   0.305
  S34                      492.74       0.00      34.91     283.13     174.34       0.00     174.34       90.21     0.39   0.354
  S35                      492.74       0.00      13.57     408.63      70.41       0.00      70.41       35.47     0.16   0.143
  S36                      492.74       0.00       2.77     474.31      15.64       0.00      15.64        1.04     0.00   0.032
  S37                      492.74       0.00      20.47     369.36     102.71       0.00     102.71       68.03     0.30   0.208
  S38                      492.74       0.00      17.26     387.54      87.77       0.00      87.77       65.76     0.29   0.178
  S39                      492.74       0.00      19.23     369.41     103.93       0.00     103.93        8.83     0.04   0.211
  S40                      492.74       0.00      34.02     288.25     170.12       0.00     170.12       61.34     0.27   0.345
  S41                      492.74       0.00      28.08     319.44     144.94       0.00     144.94       30.58     0.14   0.294
  S42                      492.74       0.00      30.29     311.41     150.73       0.00     150.73      119.11     0.52   0.306
  S43                      492.74       0.00      34.84     284.65     172.88       0.00     172.88      119.74     0.52   0.351
  S44                      492.74       0.00      50.45     206.21     235.52       0.00     235.52      188.55     0.78   0.478
  S45                      492.74       0.00      22.01     349.50     121.05       0.00     121.05        3.21     0.01   0.246
  S46                      492.74       0.00      22.92     349.55     120.05       0.00     120.05       28.82     0.13   0.244
  S47                      492.74       0.00       5.49     456.23      30.99       0.00      30.99        1.53     0.01   0.063
  S48                      492.74       0.00      45.20     230.70     216.36       0.00     216.36      161.15     0.68   0.439
  S49                      492.74       0.00      34.56     286.08     171.74       0.00     171.74      154.96     0.67   0.349
  S50                      492.74       0.00      30.25     317.96     144.20       0.00     144.20      163.63     0.68   0.293
  S51                      492.74       0.00      42.95     241.59     207.75       0.00     207.75       87.10     0.37   0.422
  S52                      492.74       0.00       1.61     482.14       8.97       0.00       8.97        8.46     0.04   0.018
  S53                      492.74       0.00      13.18     409.27      70.17       0.00      70.17       18.07     0.08   0.142
  S54                      492.74       0.00      38.49     267.80     186.04       0.00     186.04       75.12     0.32   0.378
  S55                      492.74       0.00      50.52     208.38     233.28       0.00     233.28      253.17     1.03   0.473
  S56                      492.74       0.00       2.52     476.13      14.06       0.00      14.06       11.23     0.05   0.029
  S57                      492.74       0.00      29.87     325.80     136.74       0.00     136.74      202.37     0.82   0.278
  S58                      492.74       0.00       9.57     432.08      51.00       0.00      51.00       38.66     0.17   0.104
  S59                      492.74       0.00       0.00     492.74       0.00       0.00       0.00        0.00     0.00   0.000
  S60                      492.74       0.00      36.01     289.43     166.89       0.00     166.89      212.14     0.87   0.339
  S61                      492.74       0.00      58.65     147.18     286.30       0.00     286.30       55.84     0.24   0.581
  S62                      492.74       0.00       8.50     436.76      47.41       0.00      47.41        2.09     0.01   0.096
  S63                      492.74       0.00      52.34     193.55     246.28       0.00     246.28      149.77     0.62   0.500
  S64                      492.74       0.00      34.40     295.05     162.91       0.00     162.91      111.87     0.47   0.331
  S65                      492.74       0.00       0.00     492.74       0.00       0.00       0.00        0.00     0.00   0.000
  S66                      492.74       0.00      41.00     266.18     185.10       0.00     185.10      236.06     0.94   0.376
  S67                      492.74       0.00      41.03     262.68     188.58       0.00     188.58      209.76     0.85   0.383
  S68                      492.74       0.00      27.56     333.58     131.30       0.00     131.30      194.12     0.81   0.266
  S69                      492.74       0.00      10.05     428.04      54.56       0.00      54.56       14.04     0.06   0.111
  S70                      492.74       0.00       3.79     467.46      21.47       0.00      21.47        1.65     0.01   0.044
  S71                      492.74       0.00      19.02     375.22      98.31       0.00      98.31       52.66     0.23   0.200
  S72                      492.74       0.00      33.88     301.21     157.27       0.00     157.27      196.93     0.81   0.319
  S73                      492.74       0.00      21.47     359.75     111.32       0.00     111.32       48.66     0.22   0.226
  S74                      492.74       0.00      23.88     347.13     121.49       0.00     121.49       59.57     0.26   0.247
  S75                      492.74       0.00      16.34     388.87      87.38       0.00      87.38       21.01     0.09   0.177
  S76                      492.74       0.00       8.66     437.01      46.99       0.00      46.99       15.62     0.07   0.095
  S77                      492.74       0.00      41.19     273.62     177.44       0.00     177.44      912.61     3.50   0.360
  S78                      492.74       0.00      42.43     250.06     199.79       0.00     199.79      267.88     1.11   0.405
  S79                      492.74       0.00      15.67     395.27      81.64       0.00      81.64       48.03     0.21   0.166
  S80                      492.74       0.00      25.11     343.14     124.22       0.00     124.22      109.63     0.47   0.252
  S81                      492.74       0.00      35.08     267.66     189.69       0.00     189.69        5.66     0.03   0.385
  S82                      492.74       0.00      42.61     240.65     209.03       0.00     209.03       90.02     0.39   0.424
  S83                      492.74       0.00      44.04     244.15     204.06       0.00     204.06      287.14     1.17   0.414
  S84                      492.74       0.00      37.14     258.34     196.91       0.00     196.91        9.02     0.04   0.400
  S85                      492.74       0.00      47.57     221.54     223.12       0.00     223.12      237.72     0.98   0.453
  S86                      492.74       0.00      46.16     217.00     229.10       0.00     229.10       97.60     0.42   0.465
  S87                      492.74       0.00      29.82     329.69     132.88       0.00     132.88      351.66     1.39   0.270
  S88                      492.74       0.00      39.87     261.35     191.10       0.00     191.10      116.05     0.49   0.388
  S89                      492.74       0.00      28.31     323.68     140.45       0.00     140.45      106.30     0.46   0.285
  S90                      492.74       0.00      18.66     375.71      98.19       0.00      98.19       23.85     0.11   0.199
  S91                      492.74       0.00      36.96     278.40     176.99       0.00     176.99      289.50     1.22   0.359
  S92                      492.74       0.00      35.26     278.74     178.38       0.00     178.38       46.89     0.21   0.362
  S93                      492.74       0.00      25.40     332.06     135.05       0.00     135.05       21.36     0.10   0.274
  S94                      492.74       0.00      27.44     324.71     140.31       0.00     140.31       24.86     0.11   0.285
  S95                      492.74       0.00      51.44     199.07     241.67       0.00     241.67       96.82     0.40   0.490
  S96                      492.74       0.00      28.78     312.45     151.24       0.00     151.24       22.86     0.10   0.307
  S97                      492.74       0.00      10.89     422.97      58.79       0.00      58.79       20.16     0.09   0.119
  S98                      492.74       0.00      17.48     384.68      90.41       0.00      90.41       55.44     0.25   0.183
  S99                      492.74       0.00      15.73     395.08      81.78       0.00      81.78       33.23     0.15   0.166
  S100                     492.74       0.00      15.45     396.51      80.63       0.00      80.63       33.77     0.15   0.164
  S102                     492.74       0.00      13.49     408.58      70.54       0.00      70.54       20.90     0.09   0.143
  S103                     492.74       0.00      44.73     241.64     205.88       0.00     205.88      229.96     0.93   0.418
  S101                     492.74       0.00      45.35     232.23     214.68       0.00     214.68      204.90     0.85   0.436
  S104                     492.74       0.00      34.32     306.19     151.83       0.00     151.83      408.21     1.60   0.308
  S105                     492.74       0.00      49.72     210.25     232.23       0.00     232.23      151.76     0.62   0.471
  S106                     492.74       0.00      46.31     229.42     216.50       0.00     216.50      187.98     0.77   0.439
  S107                     492.74       0.00       9.60     432.18      50.87       0.00      50.87       15.39     0.07   0.103
  S108                     492.74       0.00      28.30     326.00     138.15       0.00     138.15       99.22     0.42   0.280
  S109                     492.74       0.00      38.46     268.00     185.87       0.00     185.87      147.08     0.62   0.377
  S110                     492.74       0.00      36.04     286.18     170.13       0.00     170.13      121.70     0.51   0.345
  S111                     492.74       0.00      37.26     256.67     198.47       0.00     198.47        8.22     0.04   0.403
  S112                     492.74       0.00      33.94     292.34     166.11       0.00     166.11       65.44     0.28   0.337
  S113                     492.74       0.00      35.64     284.21     172.51       0.00     172.51      136.30     0.58   0.350
  
  
  *******************
  Groundwater Summary
  *******************
  
  -----------------------------------------------------------------------------------------------------
                                            Total    Total  Maximum  Average  Average    Final    Final
                          Total    Total    Lower  Lateral  Lateral    Upper    Water    Upper    Water
                          Infil     Evap  Seepage  Outflow  Outflow   Moist.    Table   Moist.    Table
  Subcatchment               mm       mm       mm       mm      CMS                 m                 m
  -----------------------------------------------------------------------------------------------------
  S1                     451.79   286.08     8.70     0.00     0.00     0.33     4.97     0.33     4.94
  S2                     406.85   257.63     8.70     0.00     0.00     0.32     4.97     0.33     4.94
  S3                     416.86   263.96     8.70     0.00     0.00     0.32     4.97     0.33     4.94
  S4                     411.58   260.62     8.70     0.00     0.00     0.32     4.97     0.33     4.94
  S5                     367.14   232.48     8.70     0.00     0.00     0.32     4.97     0.33     4.94
  S6                     408.18   258.47     8.70     0.00     0.00     0.32     4.97     0.33     4.94
  S7                     274.31   171.89     8.71     0.00     0.00     0.32     4.97     0.32     4.94
  S8                     331.27   209.76     8.71     0.00     0.00     0.32     4.97     0.32     4.94
  S9                     311.46   197.22     8.71     0.00     0.00     0.32     4.97     0.32     4.94
  S10                    401.34   254.13     8.70     0.00     0.00     0.32     4.97     0.33     4.94
  S11                    358.81   227.21     8.71     0.00     0.00     0.32     4.97     0.33     4.94
  S12                    351.96   222.87     8.71     0.00     0.00     0.32     4.97     0.33     4.94
  S13                    452.09   286.27     8.70     0.00     0.00     0.33     4.97     0.33     4.94
  S14                    350.48   221.93     8.71     0.00     0.00     0.32     4.97     0.33     4.94
  S15                    288.30   182.02     8.71     0.00     0.00     0.32     4.97     0.32     4.94
  S16                    492.59   311.92     8.70     0.00     0.00     0.33     4.97     0.34     4.94
  S17                    490.77   310.76     8.70     0.00     0.00     0.33     4.97     0.34     4.94
  S18                    305.00   193.13     8.71     0.00     0.00     0.32     4.97     0.32     4.94
  S19                    212.12   126.68     8.71     0.00     0.00     0.31     4.97     0.32     4.94
  S20                    304.12   192.57     8.71     0.00     0.00     0.32     4.97     0.32     4.94
  S21                    345.16   218.56     8.71     0.00     0.00     0.32     4.97     0.33     4.94
  S22                    293.03   185.17     8.71     0.00     0.00     0.32     4.97     0.32     4.94
  S23                    482.44   305.49     8.70     0.00     0.00     0.33     4.97     0.34     4.94
  S24                    374.48   237.13     8.70     0.00     0.00     0.32     4.97     0.33     4.94
  S25                    305.15   193.23     8.71     0.00     0.00     0.32     4.97     0.32     4.94
  S26                    340.14   215.38     8.71     0.00     0.00     0.32     4.97     0.32     4.94
  S27                    287.46   181.35     8.71     0.00     0.00     0.32     4.97     0.32     4.94
  S28                    308.50   195.35     8.71     0.00     0.00     0.32     4.97     0.32     4.94
  S29                    287.17   180.92     8.71     0.00     0.00     0.32     4.97     0.32     4.94
  S30                    312.10   197.63     8.71     0.00     0.00     0.32     4.97     0.32     4.94
  S31                    381.03   241.28     8.70     0.00     0.00     0.32     4.97     0.33     4.94
  S32                    257.95   158.21     8.71     0.00     0.00     0.32     4.97     0.32     4.94
  S33                    312.20   197.69     8.71     0.00     0.00     0.32     4.97     0.32     4.94
  S34                    283.13   178.30     8.71     0.00     0.00     0.32     4.97     0.32     4.94
  S35                    408.63   258.75     8.70     0.00     0.00     0.32     4.97     0.33     4.94
  S36                    474.31   300.34     8.70     0.00     0.00     0.33     4.97     0.33     4.94
  S37                    369.36   233.88     8.70     0.00     0.00     0.32     4.97     0.33     4.94
  S38                    387.54   245.40     8.70     0.00     0.00     0.32     4.97     0.33     4.94
  S39                    369.41   233.91     8.70     0.00     0.00     0.32     4.97     0.33     4.94
  S40                    288.25   181.87     8.71     0.00     0.00     0.32     4.97     0.32     4.94
  S41                    319.44   202.28     8.71     0.00     0.00     0.32     4.97     0.32     4.94
  S42                    311.41   197.19     8.71     0.00     0.00     0.32     4.97     0.32     4.94
  S43                    284.65   179.33     8.71     0.00     0.00     0.32     4.97     0.32     4.94
  S44                    206.21   122.54     8.71     0.00     0.00     0.31     4.97     0.32     4.94
  S45                    349.50   221.31     8.71     0.00     0.00     0.32     4.97     0.33     4.94
  S46                    349.55   221.34     8.71     0.00     0.00     0.32     4.97     0.33     4.94
  S47                    456.23   288.89     8.70     0.00     0.00     0.33     4.97     0.33     4.94
  S48                    230.70   137.90     8.71     0.00     0.00     0.31     4.97     0.32     4.94
  S49                    286.08   180.33     8.71     0.00     0.00     0.32     4.97     0.32     4.94
  S50                    317.96   201.34     8.71     0.00     0.00     0.32     4.97     0.32     4.94
  S51                    241.59   145.72     8.71     0.00     0.00     0.31     4.97     0.32     4.94
  S52                    482.14   305.30     8.70     0.00     0.00     0.33     4.97     0.34     4.94
  S53                    409.27   259.16     8.70     0.00     0.00     0.32     4.97     0.33     4.94
  S54                    267.80   166.24     8.71     0.00     0.00     0.32     4.97     0.32     4.94
  S55                    208.38   123.76     8.71     0.00     0.00     0.31     4.97     0.32     4.94
  S56                    476.13   301.49     8.70     0.00     0.00     0.33     4.97     0.33     4.94
  S57                    325.80   206.30     8.71     0.00     0.00     0.32     4.97     0.32     4.94
  S58                    432.08   273.60     8.70     0.00     0.00     0.33     4.97     0.33     4.94
  S59                    492.74   312.01     8.70     0.00     0.00     0.33     4.97     0.34     4.94
  S60                    289.43   182.44     8.71     0.00     0.00     0.32     4.97     0.32     4.94
  S61                    147.18    87.72     8.71     0.00     0.00     0.31     4.97     0.31     4.94
  S62                    436.76   276.57     8.70     0.00     0.00     0.33     4.97     0.33     4.94
  S63                    193.55   115.09     8.71     0.00     0.00     0.31     4.97     0.32     4.94
  S64                    295.05   186.54     8.71     0.00     0.00     0.32     4.97     0.32     4.94
  S65                    492.74   312.01     8.70     0.00     0.00     0.33     4.97     0.34     4.94
  S66                    266.18   164.26     8.71     0.00     0.00     0.32     4.97     0.32     4.94
  S67                    262.68   161.60     8.71     0.00     0.00     0.32     4.97     0.32     4.94
  S68                    333.58   211.23     8.71     0.00     0.00     0.32     4.97     0.32     4.94
  S69                    428.04   271.04     8.70     0.00     0.00     0.33     4.97     0.33     4.94
  S70                    467.46   296.00     8.70     0.00     0.00     0.33     4.97     0.33     4.94
  S71                    375.22   237.60     8.70     0.00     0.00     0.32     4.97     0.33     4.94
  S72                    301.21   190.73     8.71     0.00     0.00     0.32     4.97     0.32     4.94
  S73                    359.75   227.80     8.71     0.00     0.00     0.32     4.97     0.33     4.94
  S74                    347.13   219.81     8.71     0.00     0.00     0.32     4.97     0.33     4.94
  S75                    388.87   246.24     8.70     0.00     0.00     0.32     4.97     0.33     4.94
  S76                    437.01   276.72     8.70     0.00     0.00     0.33     4.97     0.33     4.94
  S77                    273.62   169.91     8.71     0.00     0.00     0.32     4.97     0.32     4.94
  S78                    250.06   151.69     8.71     0.00     0.00     0.32     4.97     0.32     4.94
  S79                    395.27   250.29     8.70     0.00     0.00     0.32     4.97     0.33     4.94
  S80                    343.14   217.28     8.71     0.00     0.00     0.32     4.97     0.33     4.94
  S81                    267.66   167.21     8.71     0.00     0.00     0.32     4.97     0.32     4.94
  S82                    240.65   145.22     8.71     0.00     0.00     0.31     4.97     0.32     4.94
  S83                    244.15   146.93     8.71     0.00     0.00     0.32     4.97     0.32     4.94
  S84                    258.34   159.74     8.71     0.00     0.00     0.32     4.97     0.32     4.94
  S85                    221.54   131.74     8.71     0.00     0.00     0.31     4.97     0.32     4.94
  S86                    217.00   129.56     8.71     0.00     0.00     0.31     4.97     0.32     4.94
  S87                    329.69   208.77     8.71     0.00     0.00     0.32     4.97     0.32     4.94
  S88                    261.35   160.99     8.71     0.00     0.00     0.32     4.97     0.32     4.94
  S89                    323.68   204.96     8.71     0.00     0.00     0.32     4.97     0.32     4.94
  S90                    375.71   237.91     8.70     0.00     0.00     0.32     4.97     0.33     4.94
  S91                    278.40   174.64     8.71     0.00     0.00     0.32     4.97     0.32     4.94
  S92                    278.74   175.31     8.71     0.00     0.00     0.32     4.97     0.32     4.94
  S93                    332.06   210.26     8.71     0.00     0.00     0.32     4.97     0.32     4.94
  S94                    324.71   205.61     8.71     0.00     0.00     0.32     4.97     0.32     4.94
  S95                    199.07   118.37     8.71     0.00     0.00     0.31     4.97     0.32     4.94
  S96                    312.45   197.85     8.71     0.00     0.00     0.32     4.97     0.32     4.94
  S97                    422.97   267.83     8.70     0.00     0.00     0.32     4.97     0.33     4.94
  S98                    384.68   243.59     8.70     0.00     0.00     0.32     4.97     0.33     4.94
  S99                    395.08   250.17     8.70     0.00     0.00     0.32     4.97     0.33     4.94
  S100                   396.51   251.07     8.70     0.00     0.00     0.32     4.97     0.33     4.94
  S102                   408.58   258.72     8.70     0.00     0.00     0.32     4.97     0.33     4.94
  S103                   241.64   145.10     8.71     0.00     0.00     0.32     4.97     0.32     4.94
  S101                   232.23   138.82     8.71     0.00     0.00     0.31     4.97     0.32     4.94
  S104                   306.19   193.88     8.71     0.00     0.00     0.32     4.97     0.32     4.94
  S105                   210.25   124.95     8.71     0.00     0.00     0.31     4.97     0.32     4.94
  S106                   229.42   136.74     8.71     0.00     0.00     0.31     4.97     0.32     4.94
  S107                   432.18   273.66     8.70     0.00     0.00     0.33     4.97     0.33     4.94
  S108                   326.00   206.43     8.71     0.00     0.00     0.32     4.97     0.32     4.94
  S109                   268.00   166.40     8.71     0.00     0.00     0.32     4.97     0.32     4.94
  S110                   286.18   180.17     8.71     0.00     0.00     0.32     4.97     0.32     4.94
  S111                   256.67   158.49     8.71     0.00     0.00     0.32     4.97     0.32     4.94
  S112                   292.34   184.67     8.71     0.00     0.00     0.32     4.97     0.32     4.94
  S113                   284.21   178.89     8.71     0.00     0.00     0.32     4.97     0.32     4.94
  
  
  ****************************
  Subcatchment Washoff Summary
  ****************************
  
  ----------------------------------
                          Bifenthrin
  Subcatchment                    kg
  ----------------------------------
  S1                           0.484
  S2                           0.745
  S3                           4.631
  S4                           0.411
  S5                           6.078
  S6                           0.711
  S7                           2.136
  S8                           1.700
  S9                           1.997
  S10                          2.165
  S11                          1.024
  S12                          0.888
  S13                          0.596
  S14                          7.263
  S15                          1.616
  S16                          0.000
  S17                          0.016
  S18                          2.382
  S19                          1.034
  S20                          3.629
  S21                          3.709
  S22                          2.143
  S23                          0.093
  S24                          1.770
  S25                          0.906
  S26                          1.921
  S27                          1.867
  S28                          4.048
  S29                          5.793
  S30                          1.201
  S31                          0.643
  S32                          1.614
  S33                          2.294
  S34                          1.713
  S35                          0.563
  S36                          0.069
  S37                          1.189
  S38                          1.136
  S39                          0.156
  S40                          1.151
  S41                          0.648
  S42                          2.301
  S43                          2.763
  S44                          3.193
  S45                          0.095
  S46                          0.833
  S47                          0.118
  S48                          2.971
  S49                          3.311
  S50                          3.530
  S51                          1.455
  S52                          0.222
  S53                          0.390
  S54                          1.578
  S55                          4.329
  S56                          1.525
  S57                          4.427
  S58                          0.756
  S59                          0.000
  S60                          4.056
  S61                          0.778
  S62                          0.076
  S63                          2.426
  S64                          2.273
  S65                          0.000
  S66                          4.578
  S67                          3.949
  S68                          4.954
  S69                          0.534
  S70                          0.236
  S71                          1.004
  S72                          4.595
  S73                          1.116
  S74                          1.917
  S75                          0.729
  S76                          1.180
  S77                         19.489
  S78                          5.348
  S79                          2.347
  S80                          3.520
  S81                          0.119
  S82                          1.683
  S83                          5.613
  S84                          0.183
  S85                          3.952
  S86                          1.699
  S87                          7.600
  S88                          2.131
  S89                          3.019
  S90                          0.969
  S91                          6.524
  S92                          1.049
  S93                          0.631
  S94                          0.707
  S95                          1.486
  S96                          0.603
  S97                          1.368
  S98                          2.446
  S99                          1.621
  S100                         1.203
  S102                         1.182
  S103                         4.455
  S101                         3.807
  S104                        10.724
  S105                         2.607
  S106                         3.429
  S107                         1.206
  S108                         2.865
  S109                         3.156
  S110                         2.853
  S111                         0.165
  S112                         1.493
  S113                         2.994
  ----------------------------------
  System                     258.571
  
  
  ******************
  Node Depth Summary
  ******************
  
  ---------------------------------------------------------------------------------
                                 Average  Maximum  Maximum  Time of Max    Reported
                                   Depth    Depth      HGL   Occurrence   Max Depth
  Node                 Type       Meters   Meters   Meters  days hr:min      Meters
  ---------------------------------------------------------------------------------
  J1                   JUNCTION     0.00     0.04    62.96   285  17:00        0.03
  J2                   JUNCTION     0.00     0.11    56.91   285  17:00        0.06
  J3                   JUNCTION     0.00     0.06    59.49   285  17:00        0.04
  J4                   JUNCTION     0.01     0.32    59.65   285  17:02        0.17
  J5                   JUNCTION     0.00     0.13   106.88   285  17:00        0.07
  J6                   JUNCTION     0.01     0.15    98.57   285  17:00        0.08
  J7                   JUNCTION     0.01     0.19    66.72   285  17:01        0.11
  J8                   JUNCTION     0.02     0.52    53.03   285  17:02        0.27
  J9                   JUNCTION     0.00     0.08    73.52   285  17:00        0.05
  J10                  JUNCTION     0.00     0.13    57.00   285  17:00        0.07
  J11                  JUNCTION     0.01     0.18    49.66   285  17:02        0.09
  J12                  JUNCTION     0.00     0.10    62.48   285  17:00        0.05
  J13                  JUNCTION     0.01     0.32    40.43   285  17:02        0.17
  J14                  JUNCTION     0.00     0.09    41.09   285  17:00        0.05
  J15                  JUNCTION     0.01     0.33    34.55   285  17:06        0.20
  J16                  JUNCTION     0.00     0.09    37.37   285  17:00        0.05
  J17                  JUNCTION     0.01     0.36    49.44   285  17:02        0.21
  J18                  JUNCTION     0.02     0.50    33.11   285  17:11        0.31
  J19                  JUNCTION     0.00     0.00    34.20   285  16:25        0.00
  J20                  JUNCTION     0.01     0.20    53.54   285  17:01        0.11
  J21                  JUNCTION     0.00     0.11    55.97   285  17:00        0.06
  J22                  JUNCTION     0.00     0.11    73.11   285  17:00        0.06
  J23                  JUNCTION     0.02     0.41    47.91   285  17:01        0.22
  J24                  JUNCTION     0.01     0.19    49.04   285  17:00        0.10
  J25                  JUNCTION     0.03     0.70    45.29   285  17:03        0.37
  J26                  JUNCTION     0.02     0.53    31.52   285  17:14        0.35
  J27                  JUNCTION     0.03     0.87    44.30   285  17:04        0.48
  J28                  JUNCTION     0.00     0.11    46.43   285  17:00        0.06
  J29                  JUNCTION     0.01     0.14    35.73   285  17:00        0.07
  J30                  JUNCTION     0.04     0.95    42.85   285  17:07        0.56
  J31                  JUNCTION     0.06     1.43    35.18   285  17:09        0.95
  J32                  JUNCTION     0.05     1.18    36.77   285  17:11        0.77
  J33                  JUNCTION     0.06     1.39    34.38   285  17:13        0.94
  J34                  JUNCTION     0.01     0.17    35.78   285  17:00        0.09
  J35                  JUNCTION     0.00     0.09    61.51   285  17:00        0.05
  J36                  JUNCTION     0.12     2.00    32.87   285  10:19        1.70
  J37                  JUNCTION     0.01     0.21    38.75   285  17:00        0.12
  J38                  JUNCTION     0.00     0.09    30.74   285  17:01        0.05
  J39                  JUNCTION     0.00     0.09    34.23   285  17:00        0.05
  J40                  JUNCTION     0.04     0.88    32.88   285  10:32        0.54
  J41                  JUNCTION     0.00     0.12    32.89   285  15:43        0.01
  J42                  JUNCTION     0.09     2.00    31.60   285  16:09        1.27
  J43                  JUNCTION     0.05     1.36    30.02   285  09:53        1.30
  J44                  JUNCTION     0.01     0.15    34.72   285  17:00        0.09
  J45                  JUNCTION     0.13     2.00    30.00    43  07:26        1.95
  J46                  JUNCTION     0.13     1.98    29.84   285  17:02        1.91
  J47                  JUNCTION     0.13     1.95    29.57   285  17:03        1.87
  J48                  JUNCTION     0.01     0.15    38.68   285  17:00        0.09
  J49                  JUNCTION     0.00     0.00    37.00     0  00:00        0.00
  J50                  JUNCTION     0.01     0.15    33.15   285  17:01        0.09
  J51                  JUNCTION     0.00     0.11    34.11   285  17:00        0.07
  J52                  JUNCTION     0.01     0.16    28.04   285  17:01        0.08
  J53                  JUNCTION     0.01     0.17    30.78   285  17:00        0.09
  J55                  JUNCTION     0.01     0.19    38.81   285  17:00        0.12
  J56                  JUNCTION     0.01     0.34    46.61   285  17:03        0.20
  J57                  JUNCTION     0.01     0.16    63.23   285  17:00        0.09
  J58                  JUNCTION     0.11     1.85    27.85   285  17:06        1.74
  J59                  JUNCTION     0.08     1.42    28.42   285  17:07        1.34
  J60                  JUNCTION     0.00     0.10    34.13   285  17:00        0.06
  J61                  JUNCTION     0.00     0.03    32.48   285  17:00        0.02
  J62                  JUNCTION     0.01     0.13    60.27   285  17:00        0.07
  J63                  JUNCTION     0.15     2.33    27.33   285  17:15        2.11
  J64                  JUNCTION     0.01     0.15    36.04   285  17:00        0.09
  J65                  JUNCTION     0.01     0.36    33.01   285  17:07        0.22
  J66                  JUNCTION     0.01     0.23    34.59   285  17:00        0.14
  J67                  JUNCTION     0.00     0.12    34.24   285  17:00        0.07
  J68                  JUNCTION     0.01     0.17    41.77   285  17:00        0.11
  J69                  JUNCTION     0.16     2.59    22.59   285  17:37        2.21
  J71                  JUNCTION     0.13     2.45    23.45   285  17:19        2.04
  J73                  JUNCTION     0.08     1.58    27.70   285  17:27        1.16
  J74                  JUNCTION     0.07     1.76    27.18   285  17:20        1.49
  J75                  JUNCTION     0.00     0.06    30.91   285  17:00        0.03
  J76                  JUNCTION     0.00     0.10    29.62   285  17:01        0.05
  J77                  JUNCTION     0.01     0.14    34.11   285  17:00        0.08
  J78                  JUNCTION     0.01     0.26    41.97   285  17:03        0.15
  J79                  JUNCTION     0.02     0.29    57.08   285  17:01        0.19
  J80                  JUNCTION     0.01     0.25    82.15   285  17:00        0.16
  J81                  JUNCTION     0.14     2.29    27.18   285  17:20        2.02
  J82                  JUNCTION     0.10     1.89    25.13   285  17:21        1.62
  J83                  JUNCTION     0.00     0.05    34.10   285  17:00        0.03
  J84                  JUNCTION     0.01     0.28    37.46   285  17:05        0.17
  J85                  JUNCTION     0.01     0.23    45.18   285  17:00        0.15
  J86                  JUNCTION     0.14     2.61    24.86   285  17:18        2.24
  J87                  JUNCTION     0.00     0.07    34.25   285  17:00        0.04
  J88                  JUNCTION     0.00     0.00    29.65     0  00:00        0.00
  J89                  JUNCTION     0.06     1.22    38.63   285  17:16        0.87
  J90                  JUNCTION     0.01     0.27    43.52   285  17:00        0.17
  J91                  JUNCTION     0.05     1.02    38.25   285  17:17        0.71
  J92                  JUNCTION     0.00     0.10    57.35   285  17:00        0.06
  J93                  JUNCTION     0.05     2.05    25.05   285  17:04        1.00
  J94                  JUNCTION     0.01     0.22    66.17   285  17:00        0.14
  J95                  JUNCTION     0.01     0.27    60.26   285  17:01        0.17
  J96                  JUNCTION     0.01     0.17    57.62   285  17:01        0.11
  J97                  JUNCTION     0.01     0.17    49.10   285  17:02        0.09
  J98                  JUNCTION     0.01     0.16    29.63   285  17:01        0.09
  J99                  JUNCTION     0.01     0.16    33.06   285  17:00        0.10
  J100                 JUNCTION     0.04     0.80    24.80   285  17:16        0.57
  J101                 JUNCTION     0.01     0.13    28.13   285  17:06        0.08
  J102                 JUNCTION     0.01     0.29    42.38   285  17:04        0.17
  J103                 JUNCTION     0.02     0.28    46.84   285  17:00        0.18
  J104                 JUNCTION     0.01     0.21    49.76   285  17:00        0.14
  J105                 JUNCTION     0.01     0.28    40.44   285  17:02        0.17
  J106                 JUNCTION     0.06     1.24    31.38   285  17:22        0.88
  J107                 JUNCTION     0.01     0.19    34.50   285  17:00        0.12
  J108                 JUNCTION     0.00     0.09    24.95   285  17:00        0.05
  J109                 JUNCTION     0.07     1.25    26.25   285  17:20        0.95
  J110                 JUNCTION     0.04     1.01    32.56   285  17:16        0.68
  J111                 JUNCTION     0.00     0.09    43.51   285  17:00        0.05
  J112                 JUNCTION     0.00     0.12    34.08   285  17:01        0.06
  J113                 JUNCTION     0.01     0.19    39.78   285  17:00        0.12
  J114                 JUNCTION     0.01     0.35    33.87   285  17:03        0.21
  J115                 JUNCTION     0.04     0.97    28.97   285  17:21        0.69
  J116                 JUNCTION     0.00     0.08    34.10   285  17:00        0.05
  J117                 JUNCTION     0.02     0.39    36.37   285  17:05        0.23
  J118                 JUNCTION     0.01     0.14    37.15   285  17:00        0.07
  J119                 JUNCTION     0.00     0.10    42.70   285  17:00        0.06
  J120                 JUNCTION     0.06     1.24    33.93   285  17:14        0.87
  J121                 JUNCTION     0.00     0.05    39.37   285  17:00        0.02
  J122                 JUNCTION     0.00     0.05    41.73   120  13:11        0.02
  J123                 JUNCTION     0.00     0.00    75.95     0  00:00        0.00
  J124                 JUNCTION     0.02     0.56    79.13   285  17:04        0.35
  J125                 JUNCTION     0.02     0.33    46.41   285  17:00        0.20
  J126                 JUNCTION     0.01     0.31    44.31   285  17:05        0.18
  J127                 JUNCTION     0.02     0.37    45.37   285  17:01        0.24
  J128                 JUNCTION     0.05     1.17    35.17   285  17:12        0.79
  J129                 JUNCTION     0.00     0.06    43.32   285  17:00        0.04
  J130                 JUNCTION     0.00     0.12    35.61   285  17:00        0.07
  J131                 JUNCTION     0.07     1.34    30.76   285  17:19        0.98
  J132                 JUNCTION     0.01     0.76    30.76   285  17:18        0.40
  J133                 JUNCTION     0.01     0.30    50.28   285  17:03        0.18
  J134                 JUNCTION     0.02     0.46    48.38   285  17:05        0.27
  J135                 JUNCTION     0.00     0.12    50.64   285  17:01        0.06
  J136                 JUNCTION     0.00     0.12    66.57   285  17:00        0.07
  J137                 JUNCTION     0.01     0.30    38.67   285  17:02        0.18
  J138                 JUNCTION     0.01     0.29    41.53   285  17:00        0.18
  J139                 JUNCTION     0.00     0.05    53.98   323  13:14        0.01
  J140                 JUNCTION     0.01     0.27    55.61   285  17:01        0.15
  J141                 JUNCTION     0.01     0.22    75.41   285  17:00        0.14
  J142                 JUNCTION     0.02     0.61    40.97   285  17:04        0.37
  J143                 JUNCTION     0.01     0.14    42.21   285  17:00        0.07
  J144                 JUNCTION     0.01     0.13    49.80   285  17:00        0.08
  J145                 JUNCTION     0.02     0.38    34.70   285  17:11        0.24
  J146                 JUNCTION     0.01     0.29    37.43   285  17:03        0.19
  J147                 JUNCTION     0.02     0.42    39.36   285  17:01        0.27
  J148                 JUNCTION     0.01     0.17    38.66   285  17:00        0.11
  J149                 JUNCTION     0.01     0.17    34.85   285  17:01        0.09
  J150                 JUNCTION     0.00     0.12    52.45   285  17:00        0.07
  J151                 JUNCTION     0.04     0.99    31.79   285  17:18        0.69
  J152                 JUNCTION     0.00     0.06    35.22   285  17:00        0.03
  J153                 JUNCTION     0.05     1.04    39.04   285  17:11        0.68
  J154                 JUNCTION     0.01     0.21    46.85   285  17:00        0.13
  J155                 JUNCTION     0.03     0.62    39.91   285  17:06        0.38
  J156                 JUNCTION     0.00     0.09    48.03   285  17:00        0.05
  J157                 JUNCTION     0.00     0.05    46.43   285  17:00        0.03
  J158                 JUNCTION     0.01     0.30    51.06   285  17:09        0.19
  J159                 JUNCTION     0.00     0.06    53.21   285  17:00        0.03
  J160                 JUNCTION     0.01     0.23    51.15   285  17:02        0.13
  J161                 JUNCTION     0.00     0.12    72.52   285  17:00        0.07
  J162                 JUNCTION     0.03     0.59    39.88   285  17:04        0.36
  J163                 JUNCTION     0.00     0.05    45.42   256  01:39        0.02
  J164                 JUNCTION     0.01     0.33    43.56   285  17:03        0.18
  J165                 JUNCTION     0.01     0.27    45.59   285  17:03        0.15
  J166                 JUNCTION     0.00     0.12    49.37   285  17:00        0.06
  J167                 JUNCTION     0.00     0.09    55.31   285  17:00        0.05
  J168                 JUNCTION     0.00     0.09    49.77   120  13:08        0.02
  J169                 JUNCTION     0.01     0.25    43.57   285  17:00        0.13
  J170                 JUNCTION     0.00     0.16    47.51    59  11:01        0.08
  J171                 JUNCTION     0.02     0.57    34.11   285  17:11        0.36
  J172                 JUNCTION     0.00     0.07    39.85   285  17:00        0.04
  J173                 JUNCTION     0.02     0.41    40.69   285  17:10        0.26
  J174                 JUNCTION     0.01     0.27    42.05   285  17:00        0.18
  J175                 JUNCTION     0.00     0.08    55.03   285  17:01        0.04
  J176                 JUNCTION     0.00     0.05    72.87   285  17:00        0.02
  J177                 JUNCTION     0.01     0.28    43.70   285  17:01        0.16
  J178                 JUNCTION     0.01     0.21    48.82   285  17:00        0.13
  J179                 JUNCTION     0.01     0.13    45.66   285  17:00        0.08
  J180                 JUNCTION     0.01     0.19    43.42   285  17:01        0.11
  J181                 JUNCTION     0.01     0.17    50.06   285  17:00        0.11
  J182                 JUNCTION     0.01     0.28    37.28   285  17:02        0.16
  J183                 JUNCTION     0.01     0.20    41.64   285  17:00        0.13
  J184                 JUNCTION     0.02     0.45    37.25   285  17:05        0.27
  J185                 JUNCTION     0.00     0.07    40.82     1  10:22        0.02
  J186                 JUNCTION     0.01     0.18    49.68   285  17:01        0.10
  J187                 JUNCTION     0.01     0.14    54.22   285  17:00        0.08
  J188                 JUNCTION     0.01     0.23    43.53   285  17:02        0.13
  J189                 JUNCTION     0.01     0.21    46.48   285  17:00        0.13
  J190                 JUNCTION     0.01     0.20    40.99   285  17:02        0.11
  J191                 JUNCTION     0.01     0.19    43.49   285  17:00        0.12
  J192                 JUNCTION     0.01     0.26    38.76   285  17:02        0.14
  J193                 JUNCTION     0.01     0.26    40.56   285  17:01        0.14
  J194                 JUNCTION     0.00     0.04    39.16   320  21:52        0.01
  J195                 JUNCTION     0.01     0.13    42.00   285  17:00        0.07
  J196                 JUNCTION     0.01     0.17    45.59   285  17:00        0.10
  J197                 JUNCTION     0.01     0.30    45.30   285  17:00        0.14
  O1                   OUTFALL      0.11     2.28    21.28   285  17:38        1.91
  
  
  *******************
  Node Inflow Summary
  *******************
  
  -------------------------------------------------------------------------------------------------
                                  Maximum  Maximum                  Lateral       Total        Flow
                                  Lateral    Total  Time of Max      Inflow      Inflow     Balance
                                   Inflow   Inflow   Occurrence      Volume      Volume       Error
  Node                 Type           CMS      CMS  days hr:min    10^6 ltr    10^6 ltr     Percent
  -------------------------------------------------------------------------------------------------
  J1                   JUNCTION     0.090    0.090   285  17:00          20          20      -0.056
  J2                   JUNCTION     0.000    0.222   285  17:00           0        49.4      -0.088
  J3                   JUNCTION     0.132    0.132   285  17:00        29.4        29.4      -0.030
  J4                   JUNCTION     0.032    1.676   285  17:00        7.06         377       0.002
  J5                   JUNCTION     0.648    0.648   285  17:00         145         145      -0.041
  J6                   JUNCTION     0.745    0.745   285  17:00         167         167      -0.011
  J7                   JUNCTION     0.000    1.004   285  17:00           0         225      -0.012
  J8                   JUNCTION     0.527    2.406   285  17:00         119         545       0.000
  J9                   JUNCTION     0.262    0.262   285  17:00        58.4        58.4      -0.023
  J10                  JUNCTION     0.374    0.374   285  17:00        85.1        85.1      -0.014
  J11                  JUNCTION     0.000    0.618   285  17:00           0         140      -0.025
  J12                  JUNCTION     0.246    0.246   285  17:00        55.4        55.4      -0.030
  J13                  JUNCTION     0.167    0.974   285  17:00        37.5         222      -0.235
  J14                  JUNCTION     0.197    0.197   285  17:00        44.3        44.3      -0.022
  J15                  JUNCTION     0.000    1.449   285  17:01           0         357       0.021
  J16                  JUNCTION     0.135    0.135   285  17:00        30.1        30.1      -0.129
  J17                  JUNCTION     1.347    1.347   285  17:00         328         328      -0.024
  J18                  JUNCTION     0.000    1.418   285  17:07      0.0925         357      -0.008
  J19                  JUNCTION     0.000    0.000   285  16:05      0.0499      0.0499     -24.928
  J20                  JUNCTION     0.000    0.731   285  17:00           0         165      -0.008
  J21                  JUNCTION     0.307    0.307   285  17:00        69.3        69.3      -0.015
  J22                  JUNCTION     0.426    0.426   285  17:00        95.8        95.8      -0.012
  J23                  JUNCTION     0.262    1.640   285  17:00        60.5         372      -0.023
  J24                  JUNCTION     0.651    0.651   285  17:00         147         147      -0.007
  J25                  JUNCTION     0.382    4.926   285  17:00          89    1.13e+03       0.018
  J26                  JUNCTION     0.009    1.694   285  17:03        2.07         430      -0.066
  J27                  JUNCTION     0.161    5.214   285  17:02        36.3    1.21e+03      -0.005
  J28                  JUNCTION     0.195    0.195   285  17:00        43.9        43.9      -0.095
  J29                  JUNCTION     0.308    0.308   285  17:00        71.1        71.1      -0.070
  J30                  JUNCTION     0.349    5.893   285  17:01          80    1.38e+03      -0.066
  J31                  JUNCTION     1.615   10.419   285  17:02         379    2.59e+03       0.020
  J32                  JUNCTION     1.098    8.236   285  17:02         262    1.99e+03       0.064
  J33                  JUNCTION     0.113   10.765   285  17:08        25.2    2.71e+03      -0.051
  J34                  JUNCTION     0.391    0.391   285  17:00        93.3        93.3      -0.104
  J35                  JUNCTION     0.379    0.379   285  17:00        86.5        86.5      -0.059
  J36                  JUNCTION     0.000   17.501   285  17:14           0    4.62e+03       0.033
  J37                  JUNCTION     0.392    0.392   285  17:00        90.2        90.2      -0.680
  J38                  JUNCTION     0.000    0.157   285  17:00           0        35.4      -0.305
  J39                  JUNCTION     0.158    0.158   285  17:00        35.5        35.5      -0.038
  J40                  JUNCTION     0.000    6.508   285  17:13           0    1.82e+03       0.025
  J41                  JUNCTION     0.005    0.098   285  15:42        1.04         1.2      -1.319
  J42                  JUNCTION     0.296   14.110   285  16:09          68    4.67e+03       0.016
  J43                  JUNCTION     0.000    1.906   285  17:02           0         496       0.096
  J44                  JUNCTION     0.289    0.289   285  17:00        65.8        65.8      -0.247
  J45                  JUNCTION     0.000   14.573   285  16:04           0    5.15e+03      -0.001
  J46                  JUNCTION     0.040   12.293   285  09:50        8.83    5.54e+03       0.019
  J47                  JUNCTION     0.000   12.709   285  17:01           0    5.67e+03       0.005
  J48                  JUNCTION     0.267    0.267   285  17:00        61.3        61.3      -0.011
  J49                  JUNCTION     0.000    0.000     0  00:00           0           0       0.000 ltr
  J50                  JUNCTION     0.000    0.266   285  17:00           0        61.3      -0.299
  J51                  JUNCTION     0.136    0.136   285  17:00        30.6        30.6      -0.502
  J52                  JUNCTION     0.000    0.514   285  17:01           0         119      -0.070
  J53                  JUNCTION     0.000    0.515   285  17:00           0         119      -0.011
  J55                  JUNCTION     0.516    0.516   285  17:00         119         119      -0.001
  J56                  JUNCTION     0.000    1.449   285  17:00           0         350      -0.052
  J57                  JUNCTION     0.776    0.776   285  17:00         189         189      -0.009
  J58                  JUNCTION     0.014   14.098   285  17:03        3.21    6.02e+03       0.001
  J59                  JUNCTION     0.000   13.605   285  17:02           0     5.9e+03       0.025
  J60                  JUNCTION     0.129    0.129   285  17:00        28.8        28.8      -0.500
  J61                  JUNCTION     0.007    0.007   285  17:00        1.53        1.53      -2.311
  J62                  JUNCTION     0.677    0.677   285  17:00         161         161      -0.015
  J63                  JUNCTION     0.000   14.724   285  17:01           0    6.17e+03       0.013
  J64                  JUNCTION     0.670    0.670   285  17:00         155         155      -0.286
  J65                  JUNCTION     0.000    1.200   285  17:01           0         297      -0.235
  J66                  JUNCTION     0.685    0.685   285  17:00         164         164      -0.136
  J67                  JUNCTION     0.000    0.368   285  17:00           0        87.1      -0.011
  J68                  JUNCTION     0.369    0.369   285  17:00        87.1        87.1       0.001
  J69                  JUNCTION     0.038   32.830   285  17:31        8.46    1.13e+04       0.029
  J71                  JUNCTION     0.000   32.952   285  17:18           0    1.09e+04       0.008
  J73                  JUNCTION     0.000    9.175   285  17:16           0    2.48e+03       0.009
  J74                  JUNCTION     0.000    9.112   285  17:26           0     2.5e+03       0.031
  J75                  JUNCTION     0.081    0.081   285  17:00        18.1        18.1      -1.064
  J76                  JUNCTION     0.000    0.317   285  17:00           0        75.3      -0.048
  J77                  JUNCTION     0.318    0.318   285  17:00        75.1        75.1      -0.179
  J78                  JUNCTION     0.000    1.641   285  17:02           0         403      -0.020
  J79                  JUNCTION     0.000    1.029   285  17:00           0         253       0.004
  J80                  JUNCTION     1.032    1.032   285  17:00         253         253      -0.009
  J81                  JUNCTION     0.000   23.523   285  17:18           0    8.67e+03      -0.003
  J82                  JUNCTION     0.000   23.923   285  17:20           0     8.8e+03       0.011
  J83                  JUNCTION     0.051    0.051   285  17:00        11.2        11.2      -2.214
  J84                  JUNCTION     0.000    0.816   285  17:00           0         202      -0.361
  J85                  JUNCTION     0.819    0.819   285  17:00         202         202      -0.047
  J86                  JUNCTION     0.009   38.326   285  17:16        2.09    1.09e+04      -0.019
  J87                  JUNCTION     0.174    0.174   285  17:00        38.7        38.7      -0.675
  J88                  JUNCTION     0.000    0.000     0  00:00           0           0       0.000 ltr
  J89                  JUNCTION     0.000    5.224   285  17:03           0    1.37e+03       0.114
  J90                  JUNCTION     0.867    0.867   285  17:00         212         212      -0.083
  J91                  JUNCTION     0.000    5.656   285  17:10           0    1.58e+03       0.008
  J92                  JUNCTION     0.238    0.238   285  17:00        55.8        55.8      -0.154
  J93                  JUNCTION     0.000    8.882   285  10:00           0    2.15e+03       0.471
  J94                  JUNCTION     0.620    0.620   285  17:00         150         150      -0.004
  J95                  JUNCTION     0.000    0.619   285  17:00           0         150       0.002
  J96                  JUNCTION     0.000    0.618   285  17:01           0         150      -0.014
  J97                  JUNCTION     0.000    0.618   285  17:01           0         150      -0.017
  J98                  JUNCTION     0.000    0.465   285  17:00           0         112      -0.196
  J99                  JUNCTION     0.466    0.466   285  17:00         112         112      -0.149
  J100                 JUNCTION     0.000    6.691   285  17:21           0    1.88e+03       0.016
  J101                 JUNCTION     0.000    0.782   285  17:04           0         197      -0.006
  J102                 JUNCTION     0.000    0.940   285  17:00           0         236      -0.075
  J103                 JUNCTION     0.944    0.944   285  17:00         236         236      -0.031
  J104                 JUNCTION     0.852    0.852   285  17:00         210         210      -0.029
  J105                 JUNCTION     0.000    0.850   285  17:00           0         210      -0.004
  J106                 JUNCTION     0.007    8.348   285  17:16        1.65    2.21e+03      -0.017
  J107                 JUNCTION     0.812    0.812   285  17:00         194         194      -0.262
  J108                 JUNCTION     0.063    0.063   285  17:00          14          14      -1.229
  J109                 JUNCTION     0.000    6.653   285  17:18           0    1.87e+03       0.012
  J110                 JUNCTION     0.000    8.354   285  17:13           0    2.21e+03       0.003
  J111                 JUNCTION     0.234    0.234   285  17:00        52.7        52.7      -0.374
  J112                 JUNCTION     0.000    0.233   285  17:00           0        52.9      -0.099
  J113                 JUNCTION     0.806    0.806   285  17:00         197         197      -0.059
  J114                 JUNCTION     0.000    0.805   285  17:00           0         197       0.004
  J115                 JUNCTION     0.000    6.543   285  17:14           0    1.82e+03       0.006
  J116                 JUNCTION     0.216    0.216   285  17:00        48.7        48.7      -0.416
  J117                 JUNCTION     0.000    1.409   285  17:00           0         345      -0.021
  J118                 JUNCTION     0.000    0.262   285  17:00           0        59.9       0.014
  J119                 JUNCTION     0.262    0.262   285  17:00        59.6        59.6      -0.488
  J120                 JUNCTION     0.000    8.143   285  17:10           0    2.14e+03       0.015
  J121                 JUNCTION     0.094    0.094   285  17:00          21          21      -1.200
  J122                 JUNCTION     0.070    0.070   285  17:00        15.6        15.6      -7.788
  J123                 JUNCTION     0.000    0.000     0  00:00           0           0       0.000 ltr
  J124                 JUNCTION     3.496    3.496   285  17:00         913         913      -0.137
  J125                 JUNCTION     1.110    1.110   285  17:00         268         268      -0.017
  J126                 JUNCTION     0.000    1.102   285  17:02           0         268       0.025
  J127                 JUNCTION     0.000    1.107   285  17:00           0         268      -0.022
  J128                 JUNCTION     0.000    6.908   285  17:01           0     1.8e+03       0.037
  J129                 JUNCTION     0.214    0.214   285  17:00          48          48      -1.231
  J130                 JUNCTION     0.473    0.473   285  17:00         110         110      -0.357
  J131                 JUNCTION     0.025    6.325   285  17:06        5.66    1.71e+03       0.037
  J132                 JUNCTION     0.000    0.484   285  17:02           0         116      -0.022
  J133                 JUNCTION     0.000    1.548   285  17:01           0         381       0.003
  J134                 JUNCTION     0.000    1.958   285  17:02           0         481      -0.015
  J135                 JUNCTION     0.000    0.385   285  17:00           0        90.2      -0.011
  J136                 JUNCTION     0.386    0.386   285  17:00          90          90      -0.185
  J137                 JUNCTION     0.000    1.171   285  17:00           0         287      -0.113
  J138                 JUNCTION     1.174    1.174   285  17:00         287         287      -0.025
  J139                 JUNCTION     0.040    0.040   285  17:00        9.02        9.02      -7.788
  J140                 JUNCTION     0.000    0.981   285  17:00           0         238      -0.004
  J141                 JUNCTION     0.982    0.982   285  17:00         238         238      -0.004
  J142                 JUNCTION     0.000    2.893   285  17:00           0         706       0.018
  J143                 JUNCTION     0.000    0.421   285  17:00           0        97.8      -0.015
  J144                 JUNCTION     0.422    0.422   285  17:00        97.6        97.6      -0.171
  J145                 JUNCTION     0.000    1.376   285  17:03           0         352      -0.665
  J146                 JUNCTION     0.000    1.381   285  17:01           0         352      -0.022
  J147                 JUNCTION     1.390    1.390   285  17:00         352         352      -0.006
  J148                 JUNCTION     0.488    0.488   285  17:00         116         116      -0.058
  J149                 JUNCTION     0.000    0.487   285  17:00           0         116      -0.027
  J150                 JUNCTION     0.459    0.459   285  17:00         106         106      -0.154
  J151                 JUNCTION     0.000    4.962   285  17:01           0    1.28e+03       0.098
  J152                 JUNCTION     0.107    0.107   285  17:00        23.8        23.8      -0.942
  J153                 JUNCTION     0.000    5.709   285  17:03           0    1.46e+03       0.000
  J154                 JUNCTION     1.217    1.217   285  17:00         290         290      -0.136
  J155                 JUNCTION     0.000    2.848   285  17:04           0         706      -0.007
  J156                 JUNCTION     0.205    0.205   285  17:00        46.9        46.9      -0.362
  J157                 JUNCTION     0.096    0.096   285  17:00        21.4        21.4      -0.710
  J158                 JUNCTION     0.000    0.486   285  17:02           0         118       0.037
  J159                 JUNCTION     0.110    0.110   285  17:00        24.9        24.9      -0.941
  J160                 JUNCTION     0.000    0.399   285  17:00           0        96.9       0.009
  J161                 JUNCTION     0.400    0.400   285  17:00        96.8        96.8      -0.092
  J162                 JUNCTION     0.000    2.637   285  17:00           0         681       0.044
  J163                 JUNCTION     0.102    0.102   285  17:00        22.9        22.9      -2.958
  J164                 JUNCTION     0.000    0.886   285  17:00           0         242      -0.085
  J165                 JUNCTION     0.000    0.664   285  17:01           0         156       0.010
  J166                 JUNCTION     0.000    0.246   285  17:00           0        56.5       0.209
  J167                 JUNCTION     0.246    0.246   285  17:00        55.4        55.4      -1.806
  J168                 JUNCTION     0.091    0.091   285  17:00        20.2        20.2      -4.750
  J169                 JUNCTION     0.000    0.781    59  11:13           0        71.9      10.431
  J170                 JUNCTION     0.148    0.148   285  17:00        33.2        33.2     -53.803
  J171                 JUNCTION     0.000    2.174   285  17:03           0         536      -0.016
  J172                 JUNCTION     0.150    0.150   285  17:00        33.8        33.8      -0.766
  J173                 JUNCTION     0.000    1.234   285  17:02           0         299      -0.144
  J174                 JUNCTION     1.604    1.604   285  17:00         408         408      -0.111
  J175                 JUNCTION     0.000    0.093   285  17:00           0        21.3      -0.066
  J176                 JUNCTION     0.093    0.093   285  17:00        20.9        20.9      -1.763
  J177                 JUNCTION     0.000    0.933   285  17:00           0         230      -0.000
  J178                 JUNCTION     0.935    0.935   285  17:00         230         230      -0.046
  J179                 JUNCTION     0.853    0.853   285  17:00         205         205      -2.016
  J180                 JUNCTION     0.000    0.623   285  17:00           0         152      -0.013
  J181                 JUNCTION     0.625    0.625   285  17:00         152         152      -0.066
  J182                 JUNCTION     0.000    0.773   285  17:00           0         188      -0.020
  J183                 JUNCTION     0.774    0.774   285  17:00         188         188      -0.049
  J184                 JUNCTION     0.000    1.444   285  17:00           0         348      -0.030
  J185                 JUNCTION     0.069    0.069   285  17:00        15.4        15.4      -5.853
  J186                 JUNCTION     0.000    0.423   285  17:00           0        99.4      -0.007
  J187                 JUNCTION     0.423    0.423   285  17:00        99.2        99.2      -0.212
  J188                 JUNCTION     0.000    0.621   285  17:00           0         147      -0.010
  J189                 JUNCTION     0.623    0.623   285  17:00         147         147      -0.038
  J190                 JUNCTION     0.000    0.504   285  17:00           0         122       0.002
  J191                 JUNCTION     0.505    0.505   285  17:00         122         122      -0.055
  J192                 JUNCTION     0.000    0.849   285  17:00           0         202       0.008
  J193                 JUNCTION     0.000    0.577   285  17:00           0         136      -0.003
  J194                 JUNCTION     0.037    0.037   285  17:00        8.22        8.22      -4.757
  J195                 JUNCTION     0.280    0.280   285  17:00        65.4        65.4      -0.151
  J196                 JUNCTION     0.578    0.578   285  17:00         136         136      -0.071
  J197                 JUNCTION     0.560    0.560   285  17:00         128         128      -0.028
  O1                   OUTFALL      0.000   32.615   285  17:38           0    1.13e+04       0.000
  
  
  **********************
  Node Surcharge Summary
  **********************
  
  Surcharging occurs when water rises above the top of the highest conduit.
  ---------------------------------------------------------------------
                                               Max. Height   Min. Depth
                                   Hours       Above Crown    Below Rim
  Node                 Type      Surcharged         Meters       Meters
  ---------------------------------------------------------------------
  J36                  JUNCTION        2.60          0.000        0.000
  J42                  JUNCTION        2.19          0.000        0.000
  J45                  JUNCTION        9.89          0.000        0.000
  J49                  JUNCTION     8759.00          0.000        0.000
  
  
  *********************
  Node Flooding Summary
  *********************
  
  Flooding refers to all water that overflows a node, whether it ponds or not.
  --------------------------------------------------------------------------
                                                             Total   Maximum
                                 Maximum   Time of Max       Flood    Ponded
                        Hours       Rate    Occurrence      Volume     Depth
  Node                 Flooded       CMS   days hr:min    10^6 ltr    Meters
  --------------------------------------------------------------------------
  J36                     2.59     3.704    285  17:15      16.986     0.000
  J42                     2.19     1.574    285  17:00      11.038     0.000
  J45                     9.89     4.158    285  17:04      85.510     0.000
  
  
  ***********************
  Outfall Loading Summary
  ***********************
  
  -------------------------------------------------------------------------
                         Flow       Avg       Max       Total         Total
                         Freq      Flow      Flow      Volume    Bifenthrin
  Outfall Node           Pcnt       CMS       CMS    10^6 ltr            kg
  -------------------------------------------------------------------------
  O1                    50.22     1.556    32.615   11263.456       221.586
  -------------------------------------------------------------------------
  System                50.22     1.556    32.615   11263.456       221.586
  
  
  ********************
  Link Flow Summary
  ********************
  
  -----------------------------------------------------------------------------
                                 Maximum  Time of Max   Maximum    Max/    Max/
                                  |Flow|   Occurrence   |Veloc|    Full    Full
  Link                 Type          CMS  days hr:min     m/sec    Flow   Depth
  -----------------------------------------------------------------------------
  C1                   CONDUIT     0.090   285  17:00      0.75    0.00    0.04
  C2                   CONDUIT     0.132   285  17:00      0.96    0.00    0.04
  C3                   CONDUIT     0.644   285  17:00      1.64    0.01    0.11
  C4                   CONDUIT     1.001   285  17:01      2.17    0.01    0.13
  C5                   CONDUIT     0.743   285  17:00      2.51    0.01    0.09
  C6                   CONDUIT     1.661   285  17:02      2.02    0.03    0.21
  C7                   CONDUIT     0.222   285  17:00      0.77    0.01    0.16
  C8                   CONDUIT     0.262   285  17:00      1.13    0.00    0.07
  C9                   CONDUIT     0.373   285  17:00      1.43    0.01    0.08
  C10                  CONDUIT     0.245   285  17:00      1.06    0.00    0.07
  C11                  CONDUIT     0.611   285  17:02      1.37    0.01    0.13
  C12                  CONDUIT     0.197   285  17:00      0.80    0.00    0.10
  C13                  CONDUIT     1.316   285  17:02      2.02    0.04    0.17
  C14                  CONDUIT     0.135   285  17:00      0.81    0.00    0.10
  C15                  CONDUIT     0.000   285  05:02      0.02    0.00    0.12
  C16                  CONDUIT     1.418   285  17:07      1.77    0.04    0.21
  C17                  CONDUIT     0.307   285  17:00      1.21    0.01    0.08
  C18                  CONDUIT     0.425   285  17:00      1.66    0.01    0.08
  C19                  CONDUIT     0.728   285  17:01      1.31    0.01    0.15
  C20                  CONDUIT     0.650   285  17:00      1.19    0.01    0.15
  C21                  CONDUIT     1.409   285  17:11      1.35    0.07    0.26
  C22                  CONDUIT     2.368   285  17:02      1.83    0.08    0.30
  C23                  CONDUIT     1.631   285  17:01      1.42    0.05    0.28
  C24                  CONDUIT     0.195   285  17:00      0.43    0.01    0.24
  C26                  CONDUIT     4.879   285  17:04      2.70    0.13    0.39
  C27                  CONDUIT     0.306   285  17:00      0.93    0.01    0.16
  C28                  CONDUIT     5.201   285  17:04      2.34    0.20    0.46
[...]
  C64                     1.00   0.19  0.59  0.00  0.20  0.02  0.00  0.00  0.99  0.00
  C65                     1.00   0.69  0.01  0.00  0.10  0.20  0.00  0.00  0.80  0.00
  C66                     1.00   0.53  0.25  0.00  0.20  0.02  0.00  0.00  0.98  0.00
  C67                     1.00   0.17  0.07  0.00  0.76  0.00  0.00  0.00  0.96  0.00
  C68                     1.00   0.17  0.00  0.00  0.83  0.00  0.00  0.00  0.00  0.00
  C69                     1.00   0.30  0.00  0.00  0.70  0.00  0.00  0.00  0.02  0.00
  C70                     1.00   0.36  0.47  0.00  0.16  0.01  0.00  0.00  0.98  0.00
  C71                     1.00   0.78  0.03  0.00  0.02  0.17  0.00  0.00  0.85  0.00
  C72                     1.00   0.30  0.48  0.00  0.21  0.01  0.00  0.00  0.99  0.00
  C73                     1.00   0.61  0.00  0.00  0.17  0.22  0.00  0.00  0.33  0.00
  C74                     1.00   0.72  0.06  0.00  0.01  0.22  0.00  0.00  0.61  0.00
  C75                     1.00   0.29  0.01  0.00  0.70  0.00  0.00  0.00  0.21  0.00
  C76                     1.00   0.34  0.50  0.00  0.15  0.01  0.00  0.00  0.99  0.00
  C77                     1.00   0.60  0.18  0.00  0.04  0.18  0.00  0.00  0.88  0.00
  C78                     1.00   0.30  0.29  0.00  0.40  0.00  0.00  0.00  0.98  0.00
  C79                     1.00   0.24  0.59  0.00  0.16  0.01  0.00  0.00  0.99  0.00
  C80                     1.00   0.22  0.00  0.00  0.78  0.00  0.00  0.00  0.09  0.00
  C81                     1.00   0.22  0.12  0.00  0.66  0.00  0.00  0.00  0.98  0.00
  C82                     1.00   0.22  0.78  0.00  0.00  0.00  0.00  0.00  0.00  0.00
  C83                     1.00   0.23  0.55  0.00  0.19  0.03  0.00  0.00  0.98  0.00
  C84                     1.00   0.18  0.00  0.00  0.82  0.00  0.00  0.00  0.01  0.00
  C85                     1.00   0.21  0.01  0.00  0.77  0.00  0.00  0.00  0.25  0.00
  C86                     1.00   0.18  0.62  0.00  0.18  0.02  0.00  0.00  0.99  0.00
  C87                     1.00   0.18  0.54  0.00  0.27  0.02  0.00  0.00  0.99  0.00
  C88                     1.00   0.22  0.15  0.00  0.62  0.00  0.00  0.00  0.97  0.00
  C89                     1.00   0.31  0.00  0.00  0.50  0.19  0.00  0.00  0.27  0.00
  C90                     1.00   0.78  0.00  0.00  0.01  0.21  0.00  0.00  0.04  0.00
  C91                     1.00   0.74  0.05  0.00  0.01  0.21  0.00  0.00  0.68  0.00
  C92                     1.00   0.72  0.02  0.00  0.19  0.08  0.00  0.00  0.98  0.00
  C93                     1.00   0.73  0.07  0.00  0.03  0.17  0.00  0.00  0.88  0.00
  C94                     1.00   0.34  0.39  0.00  0.26  0.00  0.00  0.00  0.99  0.00
  C95                     1.00   0.36  0.03  0.00  0.47  0.14  0.00  0.00  0.47  0.00
  C96                     1.00   0.38  0.25  0.00  0.37  0.00  0.00  0.00  0.99  0.00
  C97                     1.00   0.63  0.14  0.00  0.05  0.18  0.00  0.00  0.84  0.00
  C98                     1.00   0.26  0.38  0.00  0.36  0.01  0.00  0.00  0.97  0.00
  C99                     1.00   0.64  0.15  0.00  0.03  0.19  0.00  0.00  0.91  0.00
  C100                    1.00   0.53  0.10  0.00  0.36  0.00  0.00  0.00  0.96  0.00
  C101                    1.00   0.30  0.49  0.00  0.20  0.01  0.00  0.00  0.99  0.00
  C102                    1.00   0.30  0.08  0.00  0.62  0.00  0.00  0.00  0.99  0.00
  C103                    1.00   0.24  0.00  0.00  0.76  0.00  0.00  0.00  0.00  0.00
  C104                    1.00   0.39  0.44  0.00  0.17  0.00  0.00  0.00  0.98  0.00
  C105                    1.00   0.38  0.05  0.00  0.55  0.02  0.00  0.00  0.51  0.00
  C106                    1.00   0.76  0.07  0.00  0.03  0.14  0.00  0.00  0.97  0.00
  C107                    1.00   0.43  0.33  0.00  0.24  0.00  0.00  0.00  0.99  0.00
  C108                    1.00   0.50  0.29  0.00  0.07  0.14  0.00  0.00  0.97  0.00
  C109                    1.00   0.50  0.00  0.00  0.40  0.10  0.00  0.00  0.00  0.00
  C110                    1.00   0.24  0.58  0.00  0.17  0.01  0.00  0.00  0.99  0.00
  C111                    1.00   0.24  0.06  0.00  0.70  0.00  0.00  0.00  0.99  0.00
  C112                    1.00   0.77  0.06  0.00  0.03  0.15  0.00  0.00  0.96  0.00
  C113                    1.00   0.58  0.19  0.00  0.23  0.00  0.00  0.00  0.99  0.00
  C114                    1.00   0.36  0.00  0.00  0.64  0.00  0.00  0.00  0.02  0.00
  C115                    1.00   0.43  0.41  0.00  0.15  0.00  0.00  0.00  0.99  0.00
  C116                    1.00   0.58  0.29  0.00  0.13  0.01  0.00  0.00  0.99  0.00
  C117                    1.00   0.36  0.22  0.00  0.42  0.00  0.00  0.00  0.98  0.00
  C118                    1.00   0.18  0.82  0.00  0.00  0.00  0.00  0.00  0.00  0.00
  C119                    1.00   0.18  0.33  0.00  0.49  0.00  0.00  0.00  0.99  0.00
  C120                    1.00   0.58  0.09  0.00  0.34  0.00  0.00  0.00  0.98  0.00
  C121                    1.00   0.78  0.01  0.00  0.20  0.01  0.00  0.00  0.15  0.00
  C122                    1.00   0.66  0.12  0.00  0.11  0.10  0.00  0.00  0.86  0.00
  C123                    1.00   0.35  0.01  0.00  0.63  0.00  0.00  0.00  0.63  0.00
  C124                    1.00   0.37  0.47  0.00  0.16  0.00  0.00  0.00  0.99  0.00
  C125                    1.00   0.30  0.51  0.00  0.17  0.02  0.00  0.00  0.99  0.00
  C126                    1.00   0.25  0.00  0.00  0.75  0.00  0.00  0.00  0.01  0.00
  C127                    1.00   0.25  0.42  0.00  0.33  0.00  0.00  0.00  0.98  0.00
  C128                    1.00   0.78  0.04  0.00  0.01  0.18  0.00  0.00  0.91  0.00
  C129                    1.00   0.48  0.30  0.00  0.21  0.01  0.00  0.00  0.99  0.00
  C130                    1.00   0.68  0.10  0.00  0.06  0.16  0.00  0.00  0.86  0.00
  C131                    1.00   0.25  0.43  0.00  0.32  0.00  0.00  0.00  0.99  0.00
  C132                    1.00   0.48  0.07  0.00  0.37  0.08  0.00  0.00  0.95  0.00
  C133                    1.00   0.48  0.40  0.00  0.12  0.00  0.00  0.00  0.98  0.00
  C134                    1.00   0.71  0.07  0.00  0.01  0.21  0.00  0.00  0.87  0.00
  C135                    1.00   0.55  0.16  0.00  0.20  0.08  0.00  0.00  0.98  0.00
  C136                    1.00   0.78  0.04  0.00  0.01  0.17  0.00  0.00  0.91  0.00
  C137                    1.00   0.44  0.34  0.00  0.22  0.00  0.00  0.00  0.99  0.00
  C138                    1.00   0.17  0.37  0.00  0.46  0.00  0.00  0.00  0.99  0.00
  C139                    1.00   0.54  0.23  0.00  0.06  0.17  0.00  0.00  0.93  0.00
  C140                    1.00   0.76  0.01  0.00  0.13  0.10  0.00  0.00  0.00  0.00
  C141                    1.00   0.73  0.07  0.00  0.05  0.15  0.00  0.00  0.88  0.00
  C142                    1.00   0.67  0.06  0.00  0.26  0.01  0.00  0.00  0.98  0.00
  C143                    1.00   0.44  0.05  0.00  0.52  0.00  0.00  0.00  0.98  0.00
  C144                    1.00   0.44  0.37  0.00  0.18  0.01  0.00  0.00  0.99  0.00
  C145                    1.00   0.25  0.06  0.00  0.69  0.00  0.00  0.00  0.99  0.00
  C146                    1.00   0.25  0.58  0.00  0.16  0.01  0.00  0.00  0.99  0.00
  C147                    1.00   0.37  0.01  0.00  0.62  0.00  0.00  0.00  0.92  0.00
  C148                    1.00   0.37  0.42  0.00  0.19  0.01  0.00  0.00  0.99  0.00
  C149                    1.00   0.38  0.07  0.00  0.54  0.00  0.00  0.00  0.96  0.00
  C150                    1.00   0.38  0.43  0.00  0.18  0.00  0.00  0.00  0.98  0.00
  C151                    1.00   0.44  0.40  0.00  0.16  0.00  0.00  0.00  0.99  0.00
  C152                    1.00   0.44  0.00  0.00  0.56  0.00  0.00  0.00  0.24  0.00
  C153                    1.00   0.44  0.00  0.00  0.56  0.00  0.00  0.00  0.05  0.00
  C154                    1.00   0.55  0.28  0.00  0.16  0.01  0.00  0.00  0.99  0.00
  C155                    1.00   0.44  0.32  0.00  0.24  0.00  0.00  0.00  0.97  0.00
  C156                    1.00   0.76  0.04  0.00  0.07  0.14  0.00  0.00  0.98  0.00
  C157                    1.00   0.38  0.47  0.00  0.15  0.00  0.00  0.00  0.98  0.00
  C158                    1.00   0.38  0.13  0.00  0.49  0.00  0.00  0.00  0.98  0.00
  C159                    1.00   0.55  0.32  0.00  0.13  0.01  0.00  0.00  1.00  0.00
  C160                    1.00   0.55  0.04  0.00  0.41  0.00  0.00  0.00  0.99  0.00
  C162                    1.00   0.59  0.16  0.00  0.24  0.01  0.00  0.00  0.97  0.00
  C163                    1.00   0.75  0.09  0.00  0.02  0.14  0.00  0.00  0.96  0.00
  C164                    1.00   0.75  0.15  0.00  0.07  0.04  0.00  0.00  0.99  0.00
  C165                    1.00   0.55  0.20  0.00  0.25  0.00  0.00  0.00  0.94  0.00
  C166                    1.00   0.31  0.16  0.00  0.53  0.00  0.00  0.00  0.98  0.00
  C167                    1.00   0.31  0.52  0.00  0.16  0.01  0.00  0.00  0.99  0.00
  C168                    1.00   0.31  0.46  0.00  0.21  0.03  0.00  0.00  0.99  0.00
  C169                    1.00   0.31  0.10  0.00  0.59  0.00  0.00  0.00  0.99  0.00
  C170                    1.00   0.68  0.16  0.00  0.04  0.11  0.00  0.00  0.97  0.00
  C171                    1.00   0.44  0.25  0.00  0.32  0.00  0.00  0.00  0.98  0.00
  C172                    1.00   0.71  0.08  0.00  0.03  0.18  0.00  0.00  0.95  0.00
  C173                    1.00   0.51  0.19  0.00  0.29  0.00  0.00  0.00  0.99  0.00
  C174                    1.00   0.51  0.03  0.00  0.45  0.00  0.00  0.00  0.98  0.00
  C175                    1.00   0.51  0.31  0.00  0.14  0.04  0.00  0.00  0.99  0.00
  C176                    1.00   0.73  0.07  0.00  0.03  0.18  0.00  0.00  0.89  0.00
  C177                    1.00   0.41  0.32  0.00  0.25  0.02  0.00  0.00  0.97  0.00
  C178                    1.00   0.69  0.10  0.00  0.05  0.16  0.00  0.00  0.96  0.00
  C179                    1.00   0.47  0.22  0.00  0.30  0.00  0.00  0.00  0.97  0.00
  C180                    1.00   0.54  0.33  0.00  0.13  0.00  0.00  0.00  1.00  0.00
  C181                    1.00   0.47  0.07  0.00  0.46  0.00  0.00  0.00  0.95  0.00
  C182                    1.00   0.71  0.11  0.00  0.03  0.16  0.00  0.00  0.97  0.00
  C183                    1.00   0.59  0.12  0.00  0.29  0.00  0.00  0.00  0.98  0.00
  C184                    1.00   0.72  0.08  0.00  0.07  0.13  0.00  0.00  0.91  0.00
  C185                    1.00   0.41  0.31  0.00  0.27  0.01  0.00  0.00  0.97  0.00
  C186                    1.00   0.70  0.09  0.00  0.07  0.14  0.00  0.00  0.89  0.00
  C187                    1.00   0.54  0.17  0.00  0.30  0.00  0.00  0.00  0.99  0.00
  C188                    1.00   0.54  0.14  0.00  0.32  0.00  0.00  0.00  0.99  0.00
  C189                    1.00   0.54  0.33  0.00  0.13  0.00  0.00  0.00  1.00  0.00
  C190                    1.00   0.68  0.13  0.00  0.15  0.03  0.00  0.00  0.99  0.00
  C191                    1.00   0.69  0.11  0.00  0.05  0.14  0.00  0.00  0.97  0.00
  C192                    1.00   0.68  0.02  0.00  0.31  0.00  0.00  0.00  0.95  0.00
  C193                    1.00   0.27  0.00  0.00  0.72  0.00  0.00  0.00  0.20  0.00
  C194                    1.00   0.29  0.07  0.00  0.64  0.00  0.00  0.00  0.95  0.00
  C195                    1.00   0.52  0.23  0.00  0.25  0.00  0.00  0.00  0.98  0.00
  
  
  *************************
  Conduit Surcharge Summary
  *************************
  
  ----------------------------------------------------------------------------
                                                           Hours        Hours 
                         --------- Hours Full --------   Above Full   Capacity
  Conduit                Both Ends  Upstream  Dnstream   Normal Flow   Limited
  ----------------------------------------------------------------------------
  C35                         0.01      0.01      2.60      0.01         0.01
  C36                         0.01      0.01      2.60      0.01         0.01
  C38                         0.01      0.01      2.60      0.01         0.01
  C39                         0.01      0.01      2.60      0.01         0.01
  C40                         1.86      2.60      2.19      1.88         0.01
  C43                         0.01      0.01      9.89      0.01         0.01
  C44                         2.19      2.19      9.89      1.48         0.01
  C45                         0.01      9.89      0.01     15.50         0.01
  C49                         0.01      0.01      0.01      1.61         0.01
  
  
  ***************************
  Link Pollutant Load Summary
  ***************************
  
  ----------------------------------
                          Bifenthrin
  Link                            kg
  ----------------------------------
  C1                           0.526
  C2                           0.791
  C3                           5.996
  C4                           8.204
  C5                           6.932
  C6                          13.294
  C7                           1.545
  C8                           1.878
  C9                           2.247
  C10                          2.577
  C11                          4.790
  C12                          1.064
  C13                          8.978
  C14                          0.695
  C15                          0.000
  C16                          8.096
  C17                          1.726
  C18                          2.801
  C19                          4.684
  C20                          3.821
  C21                          8.590
  C22                         19.149
  C23                          9.820
  C24                          2.679
  C26                         30.627
  C27                          2.290
  C28                         33.855
  C29                          9.896
  C30                         41.894
  C31                         49.673
  C32                         60.535
  C33                          2.558
  C34                          3.154
  C35                         65.605
  C36                          2.375
  C37                          0.607
  C38                         34.972
  C39                          0.171
  C40                         99.606
  C41                         11.185
  C42                          1.201
  C43                         12.486
  C44                         97.512
  C45                        108.496
  C46                          0.830
  C47                          1.204
  C48                          1.470
  C49                        116.304
  C50                          0.845
  C51                          2.357
  C52                          2.445
  C53                          9.845
  C54                          3.653
  C55                          2.611
  C56                        116.142
  C57                        117.081
  C58                          0.947
  C59                          0.175
  C60                          3.438
  C61                        121.814
  C62                          3.998
  C63                         10.124
  C64                          4.112
  C65                          1.494
  C66                          1.533
  C67                        226.698
  C68                        221.586
  C69                         61.648
  C70                          0.488
  C71                          1.684
  C72                          2.017
  C73                          4.639
  C74                          4.527
  C75                        184.010
  C76                          2.258
  C77                          4.664
  C78                          7.590
  C79                          0.929
  C80                        228.653
  C81                        182.052
  C82                          0.000
  C83                          4.265
  C84                         26.643
  C85                         31.977
  C86                          0.852
  C87                          7.430
  C88                         46.560
  C89                          2.545
  C90                          2.511
  C91                          2.501
  C92                          2.780
  C93                          2.373
  C94                          3.184
  C95                         39.944
  C96                          4.843
  C97                          4.859
  C98                          6.200
  C99                          4.145
  C100                         5.179
  C101                         6.383
  C102                        62.148
  C103                        40.231
  C104                         0.649
  C105                        54.712
  C106                         1.065
  C107                         1.322
  C108                         4.833
  C109                         5.281
  C110                         1.305
  C111                        40.841
  C112                         1.999
  C113                         2.157
  C114                        53.828
  C115                         0.917
  C116                         2.651
  C117                        11.815
  C118                         0.000
  C119                        31.054
  C120                         6.753
  C121                         5.763
  C122                         5.837
  C123                        45.714
  C124                         2.851
  C125                         3.709
  C126                        36.951
  C127                         2.701
  C128                         1.818
  C129                         1.927
  C130                         5.966
  C131                         8.348
  C132                         7.786
  C133                         0.828
  C134                         4.057
  C135                         4.422
  C136                         1.816
  C137                         1.970
  C138                        14.562
  C139                         8.078
  C140                         8.231
  C141                         2.298
  C142                         2.566
  C143                        12.073
  C144                         3.382
  C145                        29.717
  C146                         1.189
  C147                        40.363
  C148                         7.657
  C149                        16.340
  C150                         1.441
  C151                         0.753
  C152                        15.808
  C153                         3.268
  C154                         0.863
  C155                         1.729
  C156                         1.766
  C157                         1.566
  C158                        18.591
  C159                         2.261
  C160                         6.036
  C162                         2.845
  C163                         2.518
  C164                         5.980
  C165                         1.336
  C166                        14.847
  C167                         1.376
  C168                        12.209
  C169                        10.459
  C170                         1.268
  C171                         1.795
  C172                         4.674
  C173                         5.667
  C174                        10.229
  C175                         5.212
  C176                         2.794
  C177                         3.112
  C178                         3.632
  C179                         4.394
  C180                         2.212
  C181                        11.217
  C182                         2.985
  C183                         3.537
  C184                         3.445
  C185                         3.758
  C186                         3.034
  C187                         3.920
  C188                         5.023
  C189                         0.496
  C190                         1.628
  C191                         3.198
  C192                         3.557
  C193                       121.253
  C194                        61.765
  C195                         4.321
  

  Analysis begun on:  Wed Sep 30 14:17:20 2020
  Analysis ended on:  Wed Sep 30 14:19:46 2020
  Total elapsed time: 00:02:26