
  EPA STORM WATER MANAGEMENT MODEL - VERSION 5.1 (Build 5.3.0.dev0)
  --------------------------------------------------------------

  
  *********************
  Rainfall File Summary
  *********************
  Station    First        Last         Recording   Periods    Periods    Periods
  ID         Date         Date         Frequency  w/Precip    Missing    Malfunc.
  -------------------------------------------------------------------------------
  STA01      01/01/2004   01/01/2015      60 min     96432          0          0
  p1572      01/01/2004   01/01/2015      60 min     96432          0          0
  P1601      01/01/2004   01/01/2015      60 min     96432          0          0
  P1602      01/01/2004   01/01/2015      60 min     96432          0          0

  
  *********************************************************
  NOTE: The summary statistics displayed in this report are
  based on results found at every computational time step,  
  not just on results from each reporting time step.
  *********************************************************
  
  ****************
  Analysis Options
  ****************
  Flow Units ............... CMS
  Process Models:
    Rainfall/Runoff ........ YES
    RDII ................... NO
    Snowmelt ............... NO
    Groundwater ............ YES
    Flow Routing ........... YES
    Ponding Allowed ........ NO
    Water Quality .......... YES
  Infiltration Method ...... HORTON
  Flow Routing Method ...... DYNWAVE
  Surcharge Method ......... EXTRAN
  Starting Date ............ 01/01/2009 00:00:00
  Ending Date .............. 12/31/2009 23:00:00
  Antecedent Dry Days ...... 5.0
  Report Time Step ......... 00:00:00
  Wet Time Step ............ 00:05:00
  Dry Time Step ............ 01:00:00
  Routing Time Step ........ 60.00 sec
  Variable Time Step ....... YES
  Maximum Trials ........... 8
  Number of Threads ........ 1
  Head Tolerance ........... 0.001500 m
  
  
  **************************        Volume         Depth
  Runoff Quantity Continuity     hectare-m            mm
  **************************     ---------       -------
  Total Precipitation ......      5342.219       682.977
  Evaporation Loss .........       259.791        33.213
  Infiltration Loss ........      2578.282       329.621
  Surface Runoff ...........      2503.410       320.049
  Final Storage ............         4.916         0.629
  Continuity Error (%) .....        -0.078
  
  
  **************************    Bifenthrin
  Runoff Quality Continuity             kg
  **************************    ----------
  Initial Buildup ..........         0.000
  Surface Buildup ..........       211.146
  Wet Deposition ...........         0.000
  Sweeping Removal .........         0.000
  Infiltration Loss ........         0.000
  BMP Removal ..............         0.000
  Surface Runoff ...........       209.093
  Remaining Buildup ........         2.053
  Continuity Error (%) .....         0.000
  
  
  **************************        Volume         Depth
  Groundwater Continuity         hectare-m            mm
  **************************     ---------       -------
  Initial Storage ..........     31287.834      4000.000
  Infiltration .............      2578.282       329.621
  Upper Zone ET ............      1599.296       204.462
  Lower Zone ET ............         0.000         0.000
  Deep Percolation .........        70.068         8.958
  Groundwater Flow .........      1364.223       174.409
  Final Storage ............     30832.529      3941.791
  Continuity Error (%) .....        -0.000
  
  
  **************************        Volume        Volume
  Flow Routing Continuity        hectare-m      10^6 ltr
  **************************     ---------     ---------
  Dry Weather Inflow .......         0.000         0.000
  Wet Weather Inflow .......      2503.558     25035.841
  Groundwater Inflow .......      1364.234     13642.482
  RDII Inflow ..............         0.000         0.000
  External Inflow ..........         0.000         0.000
  External Outflow .........      2631.369     26313.966
  Flooding Loss ............      1258.274     12582.872
  Evaporation Loss .........        16.729       167.289
  Exfiltration Loss ........         0.000         0.000
  Initial Stored Volume ....         0.001         0.006
  Final Stored Volume ......         0.184         1.837
  Continuity Error (%) .....        -1.002
  
  
  **************************    Bifenthrin
  Quality Routing Continuity            kg
  **************************    ----------
  Dry Weather Inflow .......         0.000
  Wet Weather Inflow .......       208.783
  Groundwater Inflow .......         0.000
  RDII Inflow ..............         0.000
  External Inflow ..........         0.000
  External Outflow .........       202.459
  Flooding Loss ............         5.666
  Exfiltration Loss ........         0.000
  Mass Reacted .............         0.181
  Initial Stored Mass ......         0.000
  Final Stored Mass ........         0.006
  Continuity Error (%) .....         0.226
  
  
  *************************
  Highest Continuity Errors
  *************************
  Node J169 (14.10%)
  Node J166 (1.24%)
  
  
  ***************************
  Time-Step Critical Elements
  ***************************
  Link C164 (15.30%)
  Link C95 (5.68%)
  Link C180 (5.38%)
  Link C175 (1.77%)
  Link C116 (1.27%)
  
  
  ********************************
  Highest Flow Instability Indexes
  ********************************
  Link C164 (138)
  Link C165 (126)
  Link C116 (102)
  Link C175 (98)
  Link C180 (93)
  
  
  *************************
  Routing Time Step Summary
  *************************
  Minimum Time Step           :     1.29 sec
  Average Time Step           :    50.83 sec
  Maximum Time Step           :    60.00 sec
  Percent in Steady State     :    -0.00
  Average Iterations per Step :     6.71
  Percent Not Converging      :    74.53
  
  
  ***************************
  Subcatchment Runoff Summary
  ***************************
  
  ------------------------------------------------------------------------------------------------------------------------------
                            Total      Total      Total      Total     Imperv       Perv      Total       Total     Peak  Runoff
                           Precip      Runon       Evap      Infil     Runoff     Runoff     Runoff      Runoff   Runoff   Coeff
  Subcatchment                 mm         mm         mm         mm         mm         mm         mm    10^6 ltr      CMS
  ------------------------------------------------------------------------------------------------------------------------------
  S1                       956.31       0.00      11.64     505.87      73.27     366.46     439.73      254.17    51.04   0.460
  S2                       956.31       0.00      18.56     453.25     153.32     332.44     485.76      197.36    39.36   0.508
  S3                       956.31       0.00      17.61     475.92     134.96     328.57     463.54     1055.24   160.03   0.485
  S4                       956.31       0.00      17.36     451.07     145.25     344.25     489.49       50.38    11.49   0.512
  S5                       956.31       0.00      25.30     412.42     223.22     296.39     519.62      824.86   144.60   0.543
  S6                       956.31       0.00      18.57     458.39     150.73     329.68     480.41      145.25    26.66   0.502
  S7                       956.31       0.00      40.37     304.16     387.30     225.64     612.94      328.20    57.63   0.641
  S8                       956.31       0.00      30.46     365.77     287.50     274.15     561.65      241.78    46.64   0.587
  S9                       956.31       0.00      34.61     348.87     321.29     252.50     573.78      322.84    55.06   0.600
  S10                      956.31       0.00      20.13     457.68     162.37     316.88     479.26      346.85    52.98   0.501
  S11                      956.31       0.00      26.64     402.52     237.96     290.24     528.21      208.54    36.73   0.552
  S12                      956.31       0.00      27.71     394.17     250.12     285.41     535.52      170.27    30.25   0.560
  S13                      956.31       0.00      12.15     522.73      72.45     349.56     422.01      370.97    47.68   0.441
  S14                      956.31       0.00      30.39     413.15     250.04     262.89     512.93     1436.89   163.93   0.536
  S15                      956.31       0.00      37.91     319.51     362.81     237.33     600.14      243.21    43.51   0.628
  S16                      956.31       0.00       5.75     561.39       0.27     389.31     389.58      153.91    25.01   0.407
  S17                      956.31       0.00       5.58     542.73       3.54     405.24     408.78       22.51     5.56   0.427
  S18                      956.31       0.00      35.08     338.11     333.45     250.99     584.44      356.10    64.87   0.611
  S19                      956.31       0.00      51.27     234.52     496.22     175.23     671.44      174.09    29.02   0.702
  S20                      956.31       0.00      35.28     337.41     334.93     249.96     584.90      543.05    98.30   0.612
  S21                      956.31       0.00      29.57     392.41     261.23     273.78     535.01      559.05    85.97   0.559
  S22                      956.31       0.00      38.51     331.33     352.76     234.32     587.07      315.41    49.40   0.614
  S23                      956.31       0.00       7.20     547.40      18.44     383.78     402.22       95.11    16.45   0.421
  S24                      956.31       0.00      24.29     423.00     210.04     299.89     509.93      226.29    37.77   0.533
  S25                      956.31       0.00      35.32     339.71     332.84     249.59     582.43      135.03    23.93   0.609
  S26                      956.31       0.00      30.60     387.87     269.86     268.58     538.44      301.57    45.02   0.563
  S27                      956.31       0.00      38.76     321.70     363.38     233.35     596.73      279.30    46.92   0.624
  S28                      956.31       0.00      36.71     354.08     324.63     241.25     565.87      765.69   107.73   0.592
  S29                      956.31       0.00      40.38     328.08     362.07     226.12     588.19      908.79   131.76   0.615
  S30                      956.31       0.00      35.28     353.99     319.23     248.42     567.65      203.41    31.42   0.594
  S31                      956.31       0.00      22.91     426.96     198.82     308.74     507.56      136.30    24.85   0.531
  S32                      956.31       0.00      45.24     292.38     413.54     205.52     619.06      298.14    45.11   0.647
  S33                      956.31       0.00      34.67     350.77     319.76     251.97     571.73      328.84    54.79   0.598
  S34                      956.31       0.00      39.67     317.45     370.79     229.20     599.99      310.47    51.30   0.627
  S35                      956.31       0.00      19.06     468.29     149.38     320.27     469.65      236.62    34.19   0.491
  S36                      956.31       0.00       8.16     529.30      33.00     386.61     419.61       27.89     6.04   0.439
  S37                      956.31       0.00      25.77     423.83     218.37     288.93     507.30      336.03    47.60   0.530
  S38                      956.31       0.00      22.66     444.93     186.43     302.90     489.34      366.65    51.73   0.512
  S39                      956.31       0.00      24.18     407.23     220.12     306.41     526.53       44.75     9.20   0.551
  S40                      956.31       0.00      38.80     323.40     361.78     233.13     594.91      214.51    35.43   0.622
  S41                      467.36       0.00      29.58     291.12     136.52       9.65     146.16       30.84     0.24   0.313
  S42                      467.36       0.00      31.65     285.59     142.06       7.51     149.57      118.19     0.82   0.320
  S43                      956.31       0.00      39.62     320.07     367.86     229.48     597.34      413.71    67.08   0.625
  S44                      956.31       0.00      54.76     232.35     503.66     165.74     669.41      535.91    81.62   0.700
  S45                      467.36       0.00      23.77     313.95     113.99      15.36     129.35        3.43     0.04   0.277
  S46                      467.36       0.00      24.82     318.67     113.05      10.44     123.49       29.65     0.26   0.264
  S47                      467.36       0.00       8.41     412.35      29.20      17.39      46.60        2.31     0.05   0.100
  S48                      521.21       0.00      46.04     235.68     232.41       6.26     238.66      177.76     1.16   0.458
  S49                      467.36       0.00      35.56     261.70     161.86       7.60     169.46      152.90     1.04   0.363
  S50                      956.31       0.00      35.29     366.85     307.80     246.68     554.48      629.19    85.13   0.580
  S51                      956.31       0.00      47.49     271.41     442.91     195.01     637.92      267.44    42.30   0.667
  S52                      467.36       0.00       5.38     446.26       8.45       7.28      15.73       14.83     0.28   0.034
  S53                      467.36       0.00      15.87     374.91      66.07      10.32      76.38       19.67     0.20   0.163
  S54                      467.36       0.00      39.14     245.61     175.45       6.44     181.89       73.45     0.46   0.389
  S55                      521.21       0.00      50.81     213.37     250.95       5.13     256.08      277.91     1.65   0.491
  S56                      467.36       0.00       6.08     438.27      13.25       9.77      23.02       18.38     0.36   0.049
  S57                      467.36       0.00      31.24     302.38     129.14       4.04     133.18      197.10     1.13   0.285
  S58                      467.36       0.00      12.60     397.50      48.02       9.11      57.13       43.31     0.46   0.122
  S59                      467.36       0.00       3.34     446.71       0.00      17.35      17.35        1.19     0.06   0.037
  S60                      956.31       0.00      40.86     334.55     357.13     223.90     581.04      738.56    99.03   0.608
  S61                      521.21       0.00      58.38     148.63     307.30       5.82     313.12       61.07     0.42   0.601
  S62                      467.36       0.00      11.25     395.39      44.65      15.99      60.64        2.67     0.05   0.130
  S63                      521.21       0.00      52.50     197.43     264.74       5.56     270.30      164.37     1.03   0.519
  S64                      467.36       0.00      35.39     272.12     153.72       5.49     159.21      109.33     0.67   0.341
  S65                      467.36       0.00       2.95     438.86       0.00      25.59      25.59        0.21     0.01   0.055
  S66                      956.31       0.00      45.68     308.33     397.06     205.23     602.29      768.11   101.94   0.630
  S67                      956.31       0.00      45.69     302.05     403.84     204.83     608.66      677.05    93.84   0.636
  S68                      467.36       0.00      29.18     308.60     123.86       5.22     129.08      190.84     1.19   0.276
  S69                      467.36       0.00      12.91     391.18      51.37      11.78      63.15       16.26     0.20   0.135
  S70                      467.36       0.00       6.85     423.30      20.24      16.99      37.23        2.86     0.08   0.080
  S71                      467.36       0.00      21.30     344.31      92.60       8.84     101.44       54.33     0.45   0.217
  S72                      467.36       0.00      34.89     278.60     148.47       4.76     153.23      191.86     1.13   0.328
  S73                      467.36       0.00      23.52     329.17     104.84       9.47     114.31       49.97     0.42   0.245
  S74                      467.36       0.00      25.77     318.39     114.45       8.33     122.78       60.20     0.46   0.263
  S75                      467.36       0.00      18.71     354.49      82.27      11.64      93.91       22.58     0.23   0.201
  S76                      467.36       0.00      11.67     400.34      44.25      11.01      55.25       18.37     0.23   0.118
  S77                      521.21       0.00      42.31     283.46     191.44       3.24     194.67     1001.25     4.78   0.374
  S78                      521.21       0.00      43.49     256.48     214.75       5.72     220.47      295.61     1.84   0.423
  S79                      467.36       0.00      18.23     363.20      76.88       8.80      85.68       50.41     0.44   0.183
  S80                      467.36       0.00      26.93     316.14     117.09       6.75     123.84      109.28     0.75   0.265
  S81                      467.36       0.00      35.99     239.88     178.60      12.35     190.94        5.70     0.05   0.409
  S82                      521.21       0.00      43.71     245.21     224.33       7.20     231.53       99.71     0.68   0.444
  S83                      467.36       0.00      44.12     224.66     192.65       5.09     197.74      278.25     1.62   0.423
  S84                      521.21       0.00      38.78     259.85     210.73      11.30     222.03       10.17     0.08   0.426
  S85                      521.21       0.00      48.15     226.71     239.87       5.60     245.47      261.53     1.62   0.471
  S86                      521.21       0.00      46.98     220.19     245.75       7.47     253.22      107.88     0.76   0.486
  S87                      467.36       0.00      31.16     306.73     125.61       3.31     128.91      341.15     1.88   0.276
  S88                      467.36       0.00      40.38     239.83     180.25       6.15     186.40      113.19     0.70   0.399
  S89                      521.21       0.00      30.70     331.99     150.67       7.38     158.05      119.62     0.83   0.303
  S90                      467.36       0.00      20.90     343.33      92.46      10.36     102.82       24.98     0.23   0.220
  S91                      486.36       0.00      37.02     269.71     175.81       3.14     178.94      292.69     1.87   0.368
  S92                      521.21       0.00      37.03     283.65     191.21       8.74     199.95       52.56     0.38   0.384
  S93                      521.21       0.00      27.96     336.19     144.51      12.21     156.72       24.79     0.21   0.301
  S94                      521.21       0.00      29.88     331.36     150.34       9.20     159.54       28.27     0.20   0.306
  S95                      521.21       0.00      51.68     203.22     259.80       5.56     265.36      106.31     0.66   0.509
  S96                      486.36       0.00      29.77     299.83     149.75       6.54     156.29       23.62     0.21   0.321
  S97                      521.21       0.00      14.67     431.97      62.88      11.61      74.49       25.55     0.28   0.143
  S98                      521.21       0.00      20.81     394.50      96.84       8.84     105.67       64.80     0.50   0.203
  S99                      521.21       0.00      19.21     405.37      87.57       8.86      96.43       39.18     0.31   0.185
  S100                     467.36       0.00      18.02     364.23      75.94       8.93      84.86       35.54     0.31   0.182
  S102                     521.21       0.00      17.17     419.60      75.52       8.76      84.28       24.98     0.21   0.162
  S103                     521.21       0.00      45.55     248.29     221.50       5.04     226.53      253.03     1.49   0.435
  S101                     486.36       0.00      44.52     224.53     213.34       3.09     216.43      206.57     1.27   0.445
  S104                     486.36       0.00      34.38     298.41     151.34       1.58     152.92      411.13     1.88   0.314
  S105                     486.36       0.00      48.39     203.22     230.92       2.87     233.78      152.77     0.89   0.481
  S106                     486.36       0.00      45.34     222.02     215.27       2.84     218.11      189.38     1.10   0.448
  S107                     486.36       0.00      12.36     419.29      50.35       4.25      54.60       16.52     0.14   0.112
  S108                     521.21       0.00      30.70     335.23     148.28       6.53     154.81      111.19     0.74   0.297
  S109                     486.36       0.00      38.41     259.25     184.56       3.43     187.98      148.75     0.99   0.387
  S110                     486.36       0.00      36.13     277.70     169.09       2.76     171.85      122.93     0.74   0.353
  S111                     486.36       0.00      37.55     244.52     196.44       7.24     203.69        8.44     0.08   0.419
  S112                     486.36       0.00      34.36     282.90     164.85       3.63     168.48       66.37     0.46   0.346
  S113                     486.36       0.00      35.86     275.18     171.28       3.37     174.65      137.99     0.92   0.359
  
  
  *******************
  Groundwater Summary
  *******************
  
  -----------------------------------------------------------------------------------------------------
                                            Total    Total  Maximum  Average  Average    Final    Final
                          Total    Total    Lower  Lateral  Lateral    Upper    Water    Upper    Water
                          Infil     Evap  Seepage  Outflow  Outflow   Moist.    Table   Moist.    Table
  Subcatchment               mm       mm       mm       mm      CMS                 m                 m
  -----------------------------------------------------------------------------------------------------
  S1                     505.87   295.01     9.01   285.64     0.05     0.28     5.14     0.28     5.03
  S2                     453.25   265.69     9.00   254.03     0.03     0.28     5.14     0.28     5.03
  S3                     475.92   272.12     9.01   270.21     0.18     0.28     5.14     0.28     5.03
  S4                     451.07   268.86     9.00   251.24     0.01     0.28     5.14     0.28     5.03
  S5                     412.42   239.72     8.99   230.73     0.11     0.29     5.13     0.29     5.03
  S6                     458.39   266.52     9.00   257.89     0.02     0.28     5.14     0.28     5.03
  S7                     304.16   177.12     8.96   167.08     0.02     0.29     5.11     0.29     5.02
  S8                     365.77   216.36     8.98   201.79     0.03     0.29     5.12     0.29     5.03
  S9                     348.87   203.38     8.97   192.93     0.03     0.29     5.12     0.29     5.03
  S10                    457.68   262.00     9.00   259.21     0.06     0.28     5.14     0.28     5.03
  S11                    402.52   234.29     8.99   224.75     0.03     0.29     5.13     0.29     5.03
  S12                    394.17   229.82     8.99   219.66     0.02     0.29     5.13     0.29     5.03
  S13                    522.73   295.07     9.02   299.93     0.08     0.28     5.15     0.28     5.03
  S14                    413.15   228.71     8.99   236.75     0.18     0.29     5.13     0.29     5.03
  S15                    319.51   187.61     8.96   175.28     0.02     0.29     5.12     0.29     5.02
  S16                    561.39   321.57     9.03   320.87     0.04     0.28     5.15     0.28     5.03
  S17                    542.73   320.53     9.02   305.99     0.01     0.28     5.15     0.28     5.03
  S18                    338.11   199.20     8.97   185.82     0.03     0.29     5.12     0.29     5.03
  S19                    234.52   126.47     8.94   131.12     0.01     0.29     5.10     0.29     5.02
  S20                    337.41   198.61     8.97   185.47     0.05     0.29     5.12     0.29     5.03
  S21                    392.41   225.33     8.99   220.05     0.07     0.29     5.13     0.29     5.03
  S22                    331.33   190.84     8.97   183.60     0.03     0.29     5.12     0.29     5.03
  S23                    547.40   314.96     9.02   311.93     0.02     0.28     5.15     0.28     5.03
  S24                    423.00   244.50     8.99   237.54     0.03     0.29     5.13     0.29     5.03
  S25                    339.71   199.28     8.97   187.06     0.01     0.29     5.12     0.29     5.03
  S26                    387.87   222.04     8.98   217.66     0.03     0.29     5.13     0.29     5.03
  S27                    321.70   186.87     8.97   177.35     0.02     0.29     5.12     0.29     5.02
  S28                    354.08   201.38     8.98   198.18     0.07     0.29     5.12     0.29     5.03
  S29                    328.08   186.34     8.97   182.93     0.08     0.29     5.12     0.29     5.02
  S30                    353.99   203.75     8.97   197.02     0.02     0.29     5.12     0.29     5.03
  S31                    426.96   248.81     8.99   239.08     0.02     0.29     5.13     0.28     5.03
  S32                    292.38   161.53     8.96   164.17     0.02     0.29     5.11     0.29     5.02
  S33                    350.77   203.85     8.97   194.30     0.03     0.29     5.12     0.29     5.03
  S34                    317.45   183.66     8.96   175.20     0.03     0.29     5.12     0.29     5.02
  S35                    468.29   266.74     9.00   266.14     0.04     0.28     5.14     0.28     5.03
  S36                    529.30   309.73     9.02   299.09     0.01     0.28     5.15     0.28     5.03
  S37                    423.83   241.10     8.99   239.76     0.05     0.29     5.13     0.29     5.03
  S38                    444.93   252.97     9.00   252.43     0.06     0.29     5.14     0.28     5.03
  S39                    407.23   241.28     8.99   226.01     0.01     0.29     5.13     0.29     5.03
  S40                    323.40   187.41     8.97   178.51     0.02     0.29     5.12     0.29     5.02
  S41                    291.12   209.00     8.94   140.58     0.01     0.29     5.10     0.29     5.02
  S42                    285.59   203.71     8.94   137.46     0.04     0.29     5.10     0.29     5.02
  S43                    320.07   184.73     8.96   176.91     0.03     0.29     5.12     0.29     5.02
  S44                    232.35   122.48     8.94   130.81     0.03     0.29     5.10     0.29     5.02
  S45                    313.95   228.74     8.94   152.99     0.00     0.29     5.11     0.28     5.02
  S46                    318.67   228.69     8.95   155.06     0.01     0.29     5.11     0.28     5.02
  S47                    412.35   298.55     8.97   204.74     0.00     0.28     5.12     0.28     5.03
  S48                    235.68   139.65     8.93   122.81     0.03     0.29     5.10     0.29     5.02
  S49                    261.70   186.17     8.93   125.60     0.04     0.29     5.10     0.29     5.02
  S50                    366.85   207.54     8.98   206.34     0.07     0.29     5.13     0.29     5.03
  S51                    271.41   147.42     8.95   152.92     0.02     0.29     5.11     0.29     5.02
  S52                    446.26   315.32     8.98   221.33     0.08     0.28     5.12     0.28     5.03
  S53                    374.91   267.73     8.96   184.45     0.02     0.28     5.11     0.28     5.03
  S54                    245.61   171.15     8.93   118.77     0.01     0.29     5.10     0.29     5.02
  S55                    213.37   124.72     8.92   110.57     0.03     0.29     5.09     0.29     5.02
  S56                    438.27   311.43     8.97   217.52     0.06     0.28     5.12     0.28     5.03
  S57                    302.38   213.05     8.94   145.70     0.07     0.29     5.10     0.29     5.02
  S58                    397.50   282.62     8.96   196.10     0.05     0.28     5.12     0.28     5.03
  S59                    446.71   322.41     8.98   222.77     0.01     0.28     5.12     0.28     5.03
  S60                    334.55   187.90     8.97   187.81     0.06     0.29     5.12     0.29     5.03
  S61                    148.63    88.30     8.90    73.63     0.00     0.29     5.08     0.29     5.02
  S62                    395.39   285.80     8.96   195.73     0.00     0.28     5.12     0.28     5.03
  S63                    197.43   115.97     8.92   101.49     0.02     0.29     5.09     0.29     5.02
  S64                    272.12   192.63     8.93   130.37     0.03     0.29     5.10     0.29     5.02
  S65                    438.86   322.55     8.98   219.36     0.00     0.28     5.12     0.28     5.03
  S66                    308.33   168.31     8.96   174.68     0.06     0.29     5.12     0.29     5.02
  S67                    302.05   165.34     8.96   170.66     0.05     0.29     5.12     0.29     5.02
  S68                    308.60   218.16     8.94   149.13     0.07     0.29     5.10     0.29     5.02
  S69                    391.18   280.03     8.96   193.13     0.02     0.28     5.12     0.28     5.03
  S70                    423.30   305.89     8.97   210.46     0.01     0.28     5.12     0.28     5.03
  S71                    344.31   245.45     8.95   168.27     0.03     0.29     5.11     0.28     5.02
  S72                    278.60   196.99     8.93   133.43     0.05     0.29     5.10     0.29     5.02
  S73                    329.17   235.34     8.95   160.44     0.02     0.29     5.11     0.28     5.02
  S74                    318.39   227.08     8.94   154.68     0.03     0.29     5.11     0.28     5.02
  S75                    354.49   254.42     8.95   173.91     0.01     0.29     5.11     0.28     5.03
  S76                    400.34   285.88     8.97   197.83     0.02     0.28     5.12     0.28     5.03
  S77                    283.46   174.99     8.94   144.40     0.23     0.29     5.10     0.29     5.02
  S78                    256.48   154.90     8.94   132.78     0.05     0.29     5.10     0.29     5.02
  S79                    363.20   258.55     8.96   178.14     0.04     0.29     5.11     0.28     5.03
  S80                    316.14   224.44     8.94   153.29     0.05     0.29     5.11     0.28     5.02
  S81                    239.88   172.38     8.92   115.61     0.00     0.29     5.09     0.29     5.02
  S82                    245.21   147.72     8.93   127.41     0.02     0.29     5.10     0.29     5.02
  S83                    224.66   149.74     8.92   110.86     0.05     0.29     5.09     0.29     5.02
  S84                    259.85   163.78     8.94   133.45     0.00     0.29     5.10     0.29     5.02
  S85                    226.71   132.74     8.93   118.22     0.04     0.29     5.10     0.29     5.02
  S86                    220.19   130.39     8.93   114.67     0.01     0.29     5.10     0.29     5.02
  S87                    306.73   215.58     8.94   147.83     0.13     0.29     5.10     0.29     5.02
  S88                    239.83   165.31     8.92   116.59     0.02     0.29     5.09     0.29     5.02
  S89                    331.99   211.44     8.96   169.51     0.04     0.29     5.11     0.29     5.02
  S90                    343.33   245.79     8.95   167.94     0.01     0.29     5.11     0.28     5.02
  S91                    269.71   180.08     8.93   133.05     0.07     0.29     5.10     0.29     5.02
  S92                    283.65   180.75     8.94   144.22     0.01     0.29     5.10     0.29     5.02
  S93                    336.19   216.99     8.96   172.45     0.01     0.29     5.11     0.29     5.03
  S94                    331.36   212.15     8.96   169.44     0.01     0.29     5.11     0.29     5.03
  S95                    203.22   119.27     8.92   104.80     0.01     0.29     5.09     0.29     5.02
  S96                    299.83   204.17     8.94   148.44     0.01     0.29     5.10     0.29     5.02
  S97                    431.97   276.33     8.98   224.72     0.03     0.28     5.13     0.28     5.03
  S98                    394.50   251.29     8.97   203.83     0.04     0.29     5.12     0.28     5.03
  S99                    405.37   258.08     8.97   209.77     0.03     0.29     5.12     0.28     5.03
  S100                   364.23   259.36     8.96   178.70     0.03     0.28     5.11     0.28     5.03
  S102                   419.60   266.89     8.98   217.51     0.02     0.28     5.12     0.28     5.03
  S103                   248.29   147.65     8.93   129.08     0.04     0.29     5.10     0.29     5.02
  S101                   224.53   141.06     8.92   113.43     0.03     0.29     5.09     0.29     5.02
  S104                   298.41   200.00     8.94   147.10     0.13     0.29     5.10     0.29     5.02
  S105                   203.22   126.28     8.92   102.19     0.02     0.29     5.09     0.29     5.02
  S106                   222.02   138.79     8.92   112.27     0.03     0.29     5.09     0.29     5.02
  S107                   419.29   282.33     8.97   212.09     0.02     0.28     5.12     0.28     5.03
  S108                   335.23   212.94     8.96   171.12     0.04     0.29     5.11     0.29     5.03
  S109                   259.25   171.29     8.93   128.56     0.03     0.29     5.10     0.29     5.02
  S110                   277.70   185.78     8.94   136.89     0.03     0.29     5.10     0.29     5.02
  S111                   244.52   162.51     8.93   121.85     0.00     0.29     5.10     0.29     5.02
  S112                   282.90   190.48     8.94   139.37     0.02     0.29     5.10     0.29     5.02
  S113                   275.18   184.46     8.94   135.66     0.03     0.29     5.10     0.29     5.02
  
  
  ****************************
  Subcatchment Washoff Summary
  ****************************
  
  ----------------------------------
                          Bifenthrin
  Subcatchment                    kg
  ----------------------------------
  S1                           0.398
  S2                           0.612
  S3                           3.788
  S4                           0.338
  S5                           4.971
  S6                           0.584
  S7                           1.738
  S8                           1.393
  S9                           1.626
  S10                          1.769
  S11                          0.837
  S12                          0.726
  S13                          0.488
  S14                          5.853
  S15                          1.318
  S16                          0.089
  S17                          0.036
  S18                          1.945
  S19                          0.837
  S20                          2.962
  S21                          3.017
  S22                          1.736
  S23                          0.074
  S24                          1.446
  S25                          0.739
  S26                          1.560
  S27                          1.517
  S28                          3.269
  S29                          4.672
  S30                          0.974
  S31                          0.526
  S32                          1.300
  S33                          1.866
  S34                          1.390
  S35                          0.460
  S36                          0.056
  S37                          0.967
  S38                          0.926
  S39                          0.128
  S40                          0.934
  S41                          0.531
  S42                          1.876
  S43                          2.240
  S44                          2.560
  S45                          0.078
  S46                          0.684
  S47                          0.098
  S48                          2.388
  S49                          2.698
  S50                          2.850
  S51                          1.174
  S52                          0.176
  S53                          0.321
  S54                          1.281
  S55                          3.462
  S56                          1.236
  S57                          3.577
  S58                          0.621
  S59                          0.002
  S60                          3.259
  S61                          0.626
  S62                          0.062
  S63                          1.944
  S64                          1.842
  S65                          0.000
  S66                          3.663
  S67                          3.166
  S68                          4.021
  S69                          0.439
  S70                          0.194
  S71                          0.823
  S72                          3.715
  S73                          0.915
  S74                          1.567
  S75                          0.599
  S76                          0.970
  S77                         15.477
  S78                          4.292
  S79                          1.924
  S80                          2.870
  S81                          0.098
  S82                          1.358
  S83                          4.528
  S84                          0.149
  S85                          3.168
  S86                          1.372
  S87                          6.122
  S88                          1.728
  S89                          2.441
  S90                          0.795
  S91                          5.268
  S92                          0.850
  S93                          0.515
  S94                          0.574
  S95                          1.191
  S96                          0.492
  S97                          1.118
  S98                          1.990
  S99                          1.319
  S100                         0.986
  S102                         0.963
  S103                         3.564
  S101                         3.068
  S104                         8.579
  S105                         2.096
  S106                         2.758
  S107                         0.986
  S108                         2.312
  S109                         2.552
  S110                         2.300
  S111                         0.135
  S112                         1.209
  S113                         2.421
  ----------------------------------
  System                     209.093
  
  
  ******************
  Node Depth Summary
  ******************
  
  ---------------------------------------------------------------------------------
                                 Average  Maximum  Maximum  Time of Max    Reported
                                   Depth    Depth      HGL   Occurrence   Max Depth
  Node                 Type       Meters   Meters   Meters  days hr:min      Meters
  ---------------------------------------------------------------------------------
  J1                   JUNCTION     0.01     1.66    64.58    17  17:00        0.09
  J2                   JUNCTION     0.02     2.00    58.80    17  16:25        0.16
  J3                   JUNCTION     0.01     1.65    61.08    17  17:00        0.07
  J4                   JUNCTION     0.05     2.00    61.33    17  16:09        0.51
  J5                   JUNCTION     0.02     2.00   108.75    17  16:33        0.29
  J6                   JUNCTION     0.02     2.00   100.42    17  16:23        0.16
  J7                   JUNCTION     0.02     2.00    68.53    17  16:13        0.18
  J8                   JUNCTION     0.07     2.00    54.51    17  16:09        0.75
  J9                   JUNCTION     0.01     1.58    75.02    17  17:00        0.06
  J10                  JUNCTION     0.01     2.00    58.87    17  16:55        0.09
  J11                  JUNCTION     0.02     2.00    51.48    17  16:19        0.25
  J12                  JUNCTION     0.02     1.95    64.33    17  17:00        0.19
  J13                  JUNCTION     0.04     2.00    42.11    17  16:12        0.41
  J14                  JUNCTION     0.01     1.76    42.76    17  17:00        0.08
  J15                  JUNCTION     0.05     2.00    36.22    17  16:20        0.88
  J16                  JUNCTION     0.02     2.00    39.28    17  16:47        0.38
  J17                  JUNCTION     0.05     2.00    51.08    17  16:12        0.85
  J18                  JUNCTION     0.08     2.00    34.61    17  16:16        1.32
  J19                  JUNCTION     0.01     1.13    35.33    17  17:00        0.11
  J20                  JUNCTION     0.02     2.00    55.34    17  16:13        0.15
  J21                  JUNCTION     0.01     1.73    57.59    17  17:00        0.08
  J22                  JUNCTION     0.01     1.81    74.81    17  17:00        0.08
  J23                  JUNCTION     0.04     2.00    49.50    17  16:06        0.31
  J24                  JUNCTION     0.02     2.00    50.85    17  16:13        0.14
  J25                  JUNCTION     0.09     2.00    46.59    17  16:08        0.81
  J26                  JUNCTION     0.08     2.00    32.99    17  16:17        1.36
  J27                  JUNCTION     0.11     2.00    45.43    17  16:08        1.01
  J28                  JUNCTION     0.02     2.00    48.32    17  16:57        0.14
  J29                  JUNCTION     0.02     2.00    37.59    17  16:47        0.19
  J30                  JUNCTION     0.12     2.00    43.90    17  16:10        1.11
  J31                  JUNCTION     0.18     2.00    35.75    17  16:08        1.65
  J32                  JUNCTION     0.14     2.00    37.59    17  16:12        1.32
  J33                  JUNCTION     0.17     2.00    34.99    17  16:10        1.62
  J34                  JUNCTION     0.02     2.00    37.61    17  16:31        0.14
  J35                  JUNCTION     0.01     1.54    62.96    17  17:00        0.07
  J36                  JUNCTION     0.30     2.00    32.87    17  16:13        2.00
  J37                  JUNCTION     0.03     2.00    40.54    17  16:10        0.16
  J38                  JUNCTION     0.01     1.78    32.43    17  17:00        0.20
  J39                  JUNCTION     0.02     1.81    35.95    17  17:00        0.20
  J40                  JUNCTION     0.08     2.00    34.00    17  16:22        0.73
  J41                  JUNCTION     0.01     0.75    33.52    17  17:00        0.10
  J42                  JUNCTION     0.23     2.00    31.60    17  16:14        2.00
  J43                  JUNCTION     0.12     2.00    30.66    17  16:14        1.50
  J44                  JUNCTION     0.03     2.00    36.57    17  16:22        0.27
  J45                  JUNCTION     0.36     2.00    30.00    17  16:10        2.00
  J46                  JUNCTION     0.34     2.00    29.86    17  16:11        2.00
  J47                  JUNCTION     0.37     2.00    29.62    17  16:11        1.97
  J48                  JUNCTION     0.02     2.00    40.53    17  16:29        0.12
  J49                  JUNCTION     0.00     0.00    37.00     0  00:00        0.00
  J50                  JUNCTION     0.02     1.89    34.89    17  16:29        0.12
  J51                  JUNCTION     0.01     0.14    34.14   285  17:00        0.09
  J52                  JUNCTION     0.01     0.21    28.09   285  17:02        0.13
  J53                  JUNCTION     0.01     0.23    30.84   285  17:00        0.14
  J55                  JUNCTION     0.02     0.24    38.86   285  17:00        0.16
  J56                  JUNCTION     0.03     2.00    48.27    17  16:20        0.21
  J57                  JUNCTION     0.01     2.00    65.07    17  16:46        0.11
  J58                  JUNCTION     0.30     1.92    27.92   285  17:07        1.79
  J59                  JUNCTION     0.22     1.47    28.47   285  17:07        1.40
  J60                  JUNCTION     0.01     0.14    34.17   285  17:00        0.09
  J61                  JUNCTION     0.00     0.07    32.52   285  17:00        0.03
  J62                  JUNCTION     0.01     0.18    60.32    97  11:00        0.08
  J63                  JUNCTION     0.39     2.55    27.55   285  17:20        2.15
  J64                  JUNCTION     0.01     0.18    36.07   285  17:00        0.13
  J65                  JUNCTION     0.04     2.00    34.65    17  16:16        0.39
  J66                  JUNCTION     0.04     2.00    36.36    17  16:11        0.32
  J67                  JUNCTION     0.01     1.52    35.64    17  16:24        0.09
  J68                  JUNCTION     0.02     2.00    43.60    17  16:25        0.13
  J69                  JUNCTION     0.41     2.89    22.89   285  17:37        2.26
  J71                  JUNCTION     0.34     2.74    23.74   285  17:30        2.11
  J73                  JUNCTION     0.20     1.95    28.07   285  17:28        1.27
  J74                  JUNCTION     0.16     2.01    27.43   285  17:23        1.54
  J75                  JUNCTION     0.01     0.10    30.95   285  17:00        0.06
  J76                  JUNCTION     0.01     0.12    29.64   285  17:01        0.07
  J77                  JUNCTION     0.01     0.16    34.13   285  17:00        0.11
  J78                  JUNCTION     0.02     0.34    42.05    97  11:04        0.17
  J79                  JUNCTION     0.03     0.35    57.14    97  11:02        0.21
  J80                  JUNCTION     0.03     0.31    82.21    97  11:00        0.18
  J81                  JUNCTION     0.37     2.54    27.43   285  17:25        2.07
  J82                  JUNCTION     0.26     2.16    25.40   285  17:27        1.67
  J83                  JUNCTION     0.01     0.13    34.18   285  17:01        0.06
  J84                  JUNCTION     0.03     0.34    37.52   285  17:04        0.19
  J85                  JUNCTION     0.03     0.27    45.22   285  17:00        0.18
  J86                  JUNCTION     0.36     2.84    25.09   285  17:28        2.24
  J87                  JUNCTION     0.01     0.12    34.30   285  17:00        0.07
  J88                  JUNCTION     0.00     0.04    29.69   285  17:01        0.01
  J89                  JUNCTION     0.13     1.78    39.19    17  17:56        0.99
  J90                  JUNCTION     0.04     2.00    45.25    17  16:09        0.36
  J91                  JUNCTION     0.10     1.96    39.19    17  17:53        0.80
  J92                  JUNCTION     0.01     0.13    57.38    97  11:00        0.07
  J93                  JUNCTION     0.11     2.20    25.20   285  17:16        1.18
  J94                  JUNCTION     0.02     0.28    66.23    97  11:00        0.16
  J95                  JUNCTION     0.03     0.34    60.33    97  11:01        0.19
  J96                  JUNCTION     0.02     0.22    57.67    97  11:01        0.12
  J97                  JUNCTION     0.01     0.22    49.15    97  11:02        0.11
  J98                  JUNCTION     0.01     0.20    29.67   285  17:01        0.12
  J99                  JUNCTION     0.01     0.18    33.08   285  17:00        0.13
  J100                 JUNCTION     0.07     0.93    24.93   285  17:04        0.56
  J101                 JUNCTION     0.01     0.16    28.16   285  17:06        0.08
  J102                 JUNCTION     0.03     4.00    46.09    17  16:28        0.39
  J103                 JUNCTION     0.04     4.00    50.56    17  16:58        0.35
  J104                 JUNCTION     0.03     2.22    51.77    17  17:00        0.23
  J105                 JUNCTION     0.03     4.00    44.16    17  16:26        0.33
  J106                 JUNCTION     0.13     1.54    31.68   285  17:24        0.98
  J107                 JUNCTION     0.02     0.23    34.54   285  17:00        0.16
  J108                 JUNCTION     0.01     0.16    25.02   285  17:00        0.08
  J109                 JUNCTION     0.15     1.37    26.37   285  17:26        0.94
  J110                 JUNCTION     0.10     1.26    32.81   285  17:18        0.77
  J111                 JUNCTION     0.01     0.13    43.55   285  17:00        0.08
  J112                 JUNCTION     0.01     0.18    34.14   285  17:01        0.10
  J113                 JUNCTION     0.02     0.22    39.81   285  17:00        0.15
  J114                 JUNCTION     0.03     0.43    33.95   285  17:03        0.24
  J115                 JUNCTION     0.09     1.06    29.06   285  17:25        0.69
  J116                 JUNCTION     0.01     0.12    34.14   285  17:00        0.07
  J117                 JUNCTION     0.04     0.51    36.49   285  17:05        0.26
  J118                 JUNCTION     0.01     0.19    37.20   285  17:00        0.11
  J119                 JUNCTION     0.01     0.13    42.73   285  17:00        0.09
  J120                 JUNCTION     0.14     1.50    34.19   285  17:17        0.97
  J121                 JUNCTION     0.00     0.08    39.40   285  17:00        0.04
  J122                 JUNCTION     0.00     0.09    41.77   354  23:41        0.03
  J123                 JUNCTION     0.00     0.00    75.95     0  00:00        0.00
  J124                 JUNCTION     0.05     0.66    79.23   285  17:03        0.42
  J125                 JUNCTION     0.03     0.41    46.49    97  11:00        0.23
  J126                 JUNCTION     0.02     0.40    44.40    97  11:06        0.21
  J127                 JUNCTION     0.04     0.47    45.47    97  11:01        0.27
  J128                 JUNCTION     0.12     1.43    35.43   285  17:17        0.90
  J129                 JUNCTION     0.01     0.10    43.36   285  17:00        0.06
  J130                 JUNCTION     0.01     0.15    35.64   285  17:00        0.10
  J131                 JUNCTION     0.14     1.43    30.85   285  17:23        0.98
  J132                 JUNCTION     0.02     0.85    30.85   285  17:24        0.40
  J133                 JUNCTION     0.02     0.39    50.37    97  11:04        0.20
  J134                 JUNCTION     0.04     0.59    48.51    97  11:07        0.32
  J135                 JUNCTION     0.01     0.16    50.68    97  11:01        0.07
  J136                 JUNCTION     0.01     0.15    66.60    97  11:00        0.08
  J137                 JUNCTION     0.02     0.37    38.74   285  17:02        0.21
  J138                 JUNCTION     0.03     0.33    41.57   285  17:00        0.22
  J139                 JUNCTION     0.00     0.05    53.98   361  19:56        0.01
  J140                 JUNCTION     0.02     0.36    55.70    97  11:01        0.18
  J141                 JUNCTION     0.02     0.28    75.47    97  11:00        0.15
  J142                 JUNCTION     0.05     0.78    41.14    97  11:06        0.43
  J143                 JUNCTION     0.01     0.20    42.27    97  11:00        0.08
  J144                 JUNCTION     0.01     0.17    49.84    97  11:00        0.09
  J145                 JUNCTION     0.04     0.45    34.77   285  17:10        0.24
  J146                 JUNCTION     0.03     0.33    37.47   285  17:03        0.22
  J147                 JUNCTION     0.05     0.48    39.42   285  17:00        0.32
  J148                 JUNCTION     0.01     0.20    38.69   285  17:00        0.14
  J149                 JUNCTION     0.01     0.21    34.89   285  17:01        0.13
  J150                 JUNCTION     0.01     0.16    52.49    97  11:00        0.08
  J151                 JUNCTION     0.09     1.06    31.86   330  18:10        0.71
  J152                 JUNCTION     0.00     0.09    35.25   285  17:00        0.05
  J153                 JUNCTION     0.10     1.29    39.29   285  17:12        0.78
  J154                 JUNCTION     0.02     0.26    46.90    97  12:00        0.14
  J155                 JUNCTION     0.05     0.80    40.09    97  11:09        0.44
  J156                 JUNCTION     0.01     0.12    48.06    97  11:00        0.05
  J157                 JUNCTION     0.00     0.08    46.46   285  17:00        0.03
  J158                 JUNCTION     0.03     0.40    51.16   285  17:09        0.22
  J159                 JUNCTION     0.00     0.09    53.24    97  11:00        0.04
  J160                 JUNCTION     0.02     0.30    51.22    97  11:03        0.15
  J161                 JUNCTION     0.01     0.15    72.55    97  11:00        0.08
  J162                 JUNCTION     0.06     0.73    40.02   285  17:06        0.41
  J163                 JUNCTION     0.00     0.06    45.43   330  17:00        0.02
  J164                 JUNCTION     0.05     0.48    43.71   285  17:04        0.22
  J165                 JUNCTION     0.03     0.37    45.69    97  11:04        0.17
  J166                 JUNCTION     0.01     0.17    49.42   285  17:00        0.07
  J167                 JUNCTION     0.01     0.13    55.35   285  17:00        0.05
  J168                 JUNCTION     0.00     0.09    49.77   330  16:03        0.02
  J169                 JUNCTION     0.04     0.40    43.72   285  17:00        0.14
  J170                 JUNCTION     0.00     0.14    47.49   120  17:51        0.02
  J171                 JUNCTION     0.05     0.67    34.21   330  17:34        0.38
  J172                 JUNCTION     0.01     0.10    39.88   285  17:00        0.06
  J173                 JUNCTION     0.03     0.46    40.74   330  17:50        0.27
  J174                 JUNCTION     0.03     0.29    42.07    97  12:01        0.19
  J175                 JUNCTION     0.01     0.13    55.08   285  17:03        0.05
  J176                 JUNCTION     0.00     0.07    72.89   285  17:00        0.03
  J177                 JUNCTION     0.02     0.36    43.78    97  11:02        0.19
  J178                 JUNCTION     0.02     0.26    48.87    97  11:00        0.15
  J179                 JUNCTION     0.01     0.17    45.70   345  13:08        0.09
  J180                 JUNCTION     0.01     0.23    43.46    97  12:02        0.11
  J181                 JUNCTION     0.01     0.20    50.09    97  12:00        0.12
  J182                 JUNCTION     0.02     0.33    37.33    97  12:03        0.17
  J183                 JUNCTION     0.02     0.23    41.67    97  12:00        0.13
  J184                 JUNCTION     0.04     0.55    37.35    97  12:09        0.29
  J185                 JUNCTION     0.00     0.07    40.82   361  20:52        0.03
  J186                 JUNCTION     0.02     0.25    49.75    97  11:01        0.11
  J187                 JUNCTION     0.01     0.18    54.26    97  11:00        0.09
  J188                 JUNCTION     0.02     0.30    43.60    97  12:03        0.14
  J189                 JUNCTION     0.02     0.26    46.53    97  12:00        0.14
  J190                 JUNCTION     0.02     0.25    41.04    97  12:03        0.12
  J191                 JUNCTION     0.02     0.22    43.52    97  12:00        0.12
  J192                 JUNCTION     0.02     0.34    38.84    97  12:04        0.16
  J193                 JUNCTION     0.02     0.34    40.64    97  12:02        0.15
  J194                 JUNCTION     0.00     0.04    39.16   330  17:00        0.02
  J195                 JUNCTION     0.01     0.16    42.03    97  12:00        0.08
  J196                 JUNCTION     0.01     0.21    45.63    97  12:00        0.11
  J197                 JUNCTION     0.03     2.00    47.00    17  16:08        0.43
  O1                   OUTFALL      0.28     2.59    21.59   285  17:39        1.96
  
  
  *******************
  Node Inflow Summary
  *******************
  
  -------------------------------------------------------------------------------------------------
                                  Maximum  Maximum                  Lateral       Total        Flow
                                  Lateral    Total  Time of Max      Inflow      Inflow     Balance
                                   Inflow   Inflow   Occurrence      Volume      Volume       Error
  Node                 Type           CMS      CMS  days hr:min    10^6 ltr    10^6 ltr     Percent
  -------------------------------------------------------------------------------------------------
  J1                   JUNCTION    51.038   51.038    17  17:00         419         419       0.003
  J2                   JUNCTION     0.000   90.270    17  17:00           0         719      -0.034
  J3                   JUNCTION    39.358   39.358    17  17:00         301         301      -0.002
  J4                   JUNCTION    11.488  176.880    17  17:00        76.2    2.94e+03       0.018
  J5                   JUNCTION   160.026  160.026    17  17:00    1.67e+03    1.67e+03      -0.035
  J6                   JUNCTION   144.600  144.600    17  17:00    1.19e+03    1.19e+03      -0.008
  J7                   JUNCTION     0.000  123.228    17  17:00           0    1.42e+03       0.006
  J8                   JUNCTION    84.294  175.634    17  17:00         641    3.57e+03      -0.007
  J9                   JUNCTION    46.643   46.643    17  17:00         329         329      -0.016
  J10                  JUNCTION    55.057   55.057    17  17:00         431         431      -0.039
  J11                  JUNCTION     0.000  105.572    17  17:00           0         964       0.014
  J12                  JUNCTION    52.982   52.982    17  17:00         535         535      -0.013
  J13                  JUNCTION    30.247  114.772    17  17:00         240    1.39e+03      -0.088
  J14                  JUNCTION    36.729   36.729    17  17:00         297         297      -0.004
  J15                  JUNCTION     0.000   70.108    17  17:06           0    2.32e+03       0.056
  J16                  JUNCTION    47.678   47.678    17  17:00         635         635      -0.023
  J17                  JUNCTION   163.935  163.935    17  17:00     2.1e+03     2.1e+03      -0.063
  J18                  JUNCTION     5.560   70.646    17  17:00        39.4     2.5e+03      -0.009
  J19                  JUNCTION    25.010   25.010    17  17:00         281         281       0.003
  J20                  JUNCTION     0.000  108.185    17  17:00           0         782       0.017
  J21                  JUNCTION    43.513   43.513    17  17:00         314         314       0.006
  J22                  JUNCTION    64.865   64.865    17  17:00         469         469      -0.016
  J23                  JUNCTION    29.020  127.427    17  17:00         208     1.5e+03      -0.044
  J24                  JUNCTION    98.300   98.300    17  17:00         715         715       0.001
  J25                  JUNCTION    49.398  134.547    17  17:00         414    4.95e+03       0.014
  J26                  JUNCTION    16.448   75.129    17  17:00         169    2.68e+03      -0.007
  J27                  JUNCTION    23.930   98.603    17  17:00         178    4.86e+03      -0.004
  J28                  JUNCTION    37.768   37.768    17  17:00         332         332      -0.067
  J29                  JUNCTION    45.019   45.019    17  17:00         424         424      -0.111
  J30                  JUNCTION    46.919  128.224    17  17:00         362    5.24e+03      -0.042
  J31                  JUNCTION   206.233  257.928    17  17:00    1.84e+03     8.9e+03       0.009
  J32                  JUNCTION   131.760  195.638    17  17:00    1.19e+03    6.82e+03       0.048
  J33                  JUNCTION    24.847   79.714    17  17:00         201    8.14e+03      -0.024
  J34                  JUNCTION    45.111   45.111    17  17:00         377         377      -0.095
  J35                  JUNCTION    54.793   54.793    17  17:00         441         441      -0.054
  J36                  JUNCTION     0.000   85.855    17  17:00           0    1.22e+04       0.009
  J37                  JUNCTION    51.296   51.296    17  17:00         401         401      -0.139
  J38                  JUNCTION     0.000   34.081    17  17:00           0         370      -0.067
  J39                  JUNCTION    34.189   34.189    17  17:00         371         371       0.002
  J40                  JUNCTION     0.000   57.860    17  17:31           0    4.07e+03       0.066
  J41                  JUNCTION     6.045    6.045    17  17:00        47.8        48.5      -0.033
  J42                  JUNCTION    47.602   61.398    17  17:00         495    1.17e+04       0.010
  J43                  JUNCTION     0.000   46.707    17  16:22           0    2.93e+03       0.022
  J44                  JUNCTION    51.734   51.734    17  17:00         556         556      -0.034
  J45                  JUNCTION     0.000   33.841    17  18:48           0     1.4e+04      -0.002
  J46                  JUNCTION     9.205   73.028    17  17:00          64    1.48e+04       0.009
  J47                  JUNCTION     0.000   69.321    17  17:00           0    1.49e+04      -0.002
  J48                  JUNCTION    35.430   35.430    17  17:00         279         279      -0.002
  J49                  JUNCTION     0.000    0.000     0  00:00           0           0       0.000 ltr
  J50                  JUNCTION     0.000   24.956    17  16:29           0         264      -0.074
  J51                  JUNCTION     0.243    0.243   285  17:00        60.5        60.5      -0.172
  J52                  JUNCTION     0.000    0.814   285  17:01           0         226      -0.041
  J53                  JUNCTION     0.000    0.816   285  17:00           0         227       0.003
  J55                  JUNCTION     0.817    0.817   285  17:00         227         227      -0.002
  J56                  JUNCTION     0.000   74.978    17  16:57           0         905      -0.086
  J57                  JUNCTION    81.625   81.625    17  17:00         641         641      -0.024
  J58                  JUNCTION     0.039   15.346   285  17:03        7.48    1.53e+04      -0.001
  J59                  JUNCTION     0.000   16.964    17  16:16           0    1.51e+04       0.014
  J60                  JUNCTION     0.257    0.257   285  17:00        66.9        66.9      -0.167
  J61                  JUNCTION     0.055    0.055   285  17:00        12.4        12.4      -0.215
  J62                  JUNCTION     1.160    1.160    97  11:00         269         269      -0.008
  J63                  JUNCTION     0.000   16.317   285  17:01           0    1.56e+04       0.007
  J64                  JUNCTION     1.041    1.041   285  17:00         266         266      -0.144
  J65                  JUNCTION     0.000   63.418    17  17:07           0    1.06e+03      -0.107
  J66                  JUNCTION    85.132   85.132    17  17:00         864         864      -0.020
  J67                  JUNCTION     0.000   28.615    17  16:24           0         308      -0.015
  J68                  JUNCTION    42.299   42.299    17  17:00         332         332       0.009
  J69                  JUNCTION     0.282   42.201   285  17:31         224    2.63e+04       0.017
  J71                  JUNCTION     0.000   40.829   285  17:29           0    2.54e+04       0.003
  J73                  JUNCTION     0.000   13.974   285  17:19           0    5.25e+03       0.005
  J74                  JUNCTION     0.000   14.015   285  17:29           0    5.32e+03       0.027
  J75                  JUNCTION     0.201    0.201   285  17:00        67.2        67.2      -0.263
  J76                  JUNCTION     0.000    0.464   285  17:00           0         123      -0.054
  J77                  JUNCTION     0.465    0.465   285  17:00         121         121      -1.549
  J78                  JUNCTION     0.000    2.643    97  11:02           0         624      -0.018
  J79                  JUNCTION     0.000    1.647    97  11:00           0         398      -0.005
  J80                  JUNCTION     1.659    1.659    97  11:00         398         398      -0.013
  J81                  JUNCTION     0.000   29.803   285  17:22           0    2.09e+04      -0.003
  J82                  JUNCTION     0.000   30.638   285  17:25           0    2.13e+04       0.006
  J83                  JUNCTION     0.362    0.362   285  17:00         192         192      -0.089
  J84                  JUNCTION     0.000    1.130   285  17:00           0         413      -0.246
  J85                  JUNCTION     1.134    1.134   285  17:00         413         413      -0.031
  J86                  JUNCTION     0.048   44.531   285  17:17        11.3    2.53e+04      -0.012
  J87                  JUNCTION     0.459    0.459   285  17:00         192         192      -0.099
  J88                  JUNCTION     0.063    0.063   285  17:00        16.5        16.5      -0.006
  J89                  JUNCTION     0.000    7.621    17  16:21           0    2.46e+03       0.124
  J90                  JUNCTION    99.029   99.029    17  17:00         978         978      -0.014
  J91                  JUNCTION     0.000   22.924    17  17:52           0    3.22e+03      -0.027
  J92                  JUNCTION     0.420    0.420    97  11:00        75.5        75.5      -0.138
  J93                  JUNCTION     0.013   10.225    47  18:20        2.02    3.99e+03       0.348
  J94                  JUNCTION     1.032    1.032    97  11:00         226         226      -0.009
  J95                  JUNCTION     0.000    1.028    97  11:00           0         226       0.003
  J96                  JUNCTION     0.000    1.023    97  11:01           0         226      -0.040
  J97                  JUNCTION     0.000    1.022    97  11:01           0         226      -0.011
  J98                  JUNCTION     0.000    0.667   285  17:00           0         201      -0.124
  J99                  JUNCTION     0.667    0.667   285  17:00         199         199      -1.024
  J100                 JUNCTION     0.000    8.239   285  17:22           0     3.5e+03       0.013
  J101                 JUNCTION     0.000    1.101   285  17:03           0         356       0.000
  J102                 JUNCTION     0.000   98.952    17  16:57           0         990      -0.161
  J103                 JUNCTION   101.939  101.939    17  17:00         991         991      -0.012
  J104                 JUNCTION    93.836   93.836    17  17:00         867         867      -0.014
  J105                 JUNCTION     0.000   93.679    17  17:00           0         867      -0.055
  J106                 JUNCTION     0.078   12.722   285  17:18          19    4.72e+03      -0.020
  J107                 JUNCTION     1.186    1.186   285  17:00         411         411      -0.112
  J108                 JUNCTION     0.205    0.205   285  17:00          66          66      -0.249
  J109                 JUNCTION     0.000    8.052   285  17:22           0    3.44e+03       0.009
  J110                 JUNCTION     0.000   12.667   285  17:16           0     4.7e+03       0.003
  J111                 JUNCTION     0.449    0.449   285  17:00         145         145      -1.830
  J112                 JUNCTION     0.000    0.448   285  17:00           0         147      -0.051
  J113                 JUNCTION     1.128    1.128   285  17:00         359         359      -0.113
  J114                 JUNCTION     0.000    1.127   285  17:00           0         359       0.020
  J115                 JUNCTION     0.000    7.771   285  17:18           0    3.32e+03       0.005
  J116                 JUNCTION     0.415    0.415   285  17:00         120         120      -0.127
  J117                 JUNCTION     0.000    2.234   285  17:00           0         738       0.822
  J118                 JUNCTION     0.000    0.456   285  17:00           0         141       0.271
  J119                 JUNCTION     0.456    0.456   285  17:00         136         136      -3.593
  J120                 JUNCTION     0.000   12.139   285  17:13           0    4.49e+03       0.012
  J121                 JUNCTION     0.234    0.234   285  17:00        64.4        64.4      -1.932
  J122                 JUNCTION     0.233    0.233   285  17:00        84.2        84.2     -33.256
  J123                 JUNCTION     0.000    0.000     0  00:00           0           0       0.000 ltr
  J124                 JUNCTION     4.814    4.814    97  11:00    1.74e+03    1.74e+03      -0.145
  J125                 JUNCTION     1.852    1.852    97  11:00         474         474      -0.017
  J126                 JUNCTION     0.000    1.817    97  11:02           0         474       0.025
  J127                 JUNCTION     0.000    1.840    97  11:00           0         474      -0.028
  J128                 JUNCTION     0.000   10.109   285  17:08           0    3.76e+03       0.034
  J129                 JUNCTION     0.440    0.440   285  17:00         155         155      -1.498
  J130                 JUNCTION     0.750    0.750   285  17:00         245         245      -0.508
  J131                 JUNCTION     0.049    7.322   285  17:07        9.15    3.07e+03       0.027
  J132                 JUNCTION     0.000    0.697   285  17:01           0         185       0.002
  J133                 JUNCTION     0.000    2.470    97  11:01           0         688      -0.005
  J134                 JUNCTION     0.000    3.149    97  11:02           0         864      -0.377
  J135                 JUNCTION     0.000    0.682    97  11:00           0         157      -0.010
  J136                 JUNCTION     0.686    0.686    97  11:00         155         155      -1.507
  J137                 JUNCTION     0.000    1.615   285  17:00           0         434      -0.098
  J138                 JUNCTION     1.619    1.619   285  17:00         434         434      -0.022
  J139                 JUNCTION     0.077    0.077    97  11:00        16.3        16.3     -16.812
  J140                 JUNCTION     0.000    1.621    97  11:00           0         388      -0.001
  J141                 JUNCTION     1.626    1.626    97  11:00         388         388      -0.004
  J142                 JUNCTION     0.000    4.683    97  11:01           0    1.33e+03       0.023
  J143                 JUNCTION     0.000    0.759    97  11:00           0         159      -0.025
  J144                 JUNCTION     0.762    0.762    97  11:00         157         157      -1.660
  J145                 JUNCTION     0.000    1.861   285  17:03           0         733      -0.430
  J146                 JUNCTION     0.000    1.868   285  17:01           0         733      -0.026
  J147                 JUNCTION     1.878    1.878   285  17:00         733         733      -0.009
  J148                 JUNCTION     0.703    0.703   285  17:00         184         184      -0.267
  J149                 JUNCTION     0.000    0.701   285  17:00           0         185      -0.019
  J150                 JUNCTION     0.831    0.831    97  11:00         248         248      -0.294
  J151                 JUNCTION     0.000    5.827   330  17:39           0    2.39e+03       0.080
  J152                 JUNCTION     0.228    0.228   285  17:00        65.8        65.8      -0.214
  J153                 JUNCTION     0.000    8.621   285  17:05           0    3.09e+03      -0.027
  J154                 JUNCTION     1.885    1.885    97  12:00         510         510      -0.080
  J155                 JUNCTION     0.000    4.484    97  11:07           0    1.33e+03      -0.011
  J156                 JUNCTION     0.380    0.380    97  11:00        90.5        90.5      -0.242
  J157                 JUNCTION     0.205    0.205   285  17:00        52.1        52.1      -3.087
  J158                 JUNCTION     0.000    0.803    97  11:02           0         242       0.044
  J159                 JUNCTION     0.205    0.205    97  11:00        58.3        58.3      -5.233
  J160                 JUNCTION     0.000    0.658    97  11:00           0         150       0.030
  J161                 JUNCTION     0.665    0.665    97  11:00         148         148      -0.854
  J162                 JUNCTION     0.000    3.838   285  17:01           0    1.63e+03       0.226
  J163                 JUNCTION     0.206    0.206   330  17:00        46.1        46.1      -5.466
  J164                 JUNCTION     0.000    1.707   285  17:00           0         905      -0.237
  J165                 JUNCTION     0.000    1.191    97  11:01           0         437       0.011
  J166                 JUNCTION     0.000    0.496   285  17:00           0         205       1.253
  J167                 JUNCTION     0.497    0.497   285  17:00         190         190      -7.523
  J168                 JUNCTION     0.282    0.282   285  17:00         103         103      -8.809
  J169                 JUNCTION     0.000    0.746   120  17:52           0         415      16.420
  J170                 JUNCTION     0.311    0.311   285  17:00         124         124     -70.019
  J171                 JUNCTION     0.000    3.007    97  12:07           0    1.01e+03      -0.009
  J172                 JUNCTION     0.314    0.314   285  17:00         110         110      -0.359
  J173                 JUNCTION     0.000    1.805    97  12:03           0         469      -0.168
  J174                 JUNCTION     1.896    1.896    97  12:00         807         807      -0.071
  J175                 JUNCTION     0.000    0.207   285  17:00           0        94.1       0.046
  J176                 JUNCTION     0.208    0.208   285  17:00        89.5        89.5      -4.884
  J177                 JUNCTION     0.000    1.489    97  11:00           0         398      -0.007
  J178                 JUNCTION     1.495    1.495    97  11:00         397         397      -0.144
  J179                 JUNCTION     1.272    1.272    97  12:00         315         315      -5.000
  J180                 JUNCTION     0.000    0.883    97  12:00           0         221      -0.016
  J181                 JUNCTION     0.890    0.890    97  12:00         220         220      -0.473
  J182                 JUNCTION     0.000    1.100    97  12:00           0         288      -0.029
  J183                 JUNCTION     1.107    1.107    97  12:00         287         287      -0.239
  J184                 JUNCTION     0.000    2.172    97  12:02           0         726       0.627
  J185                 JUNCTION     0.140    0.140   330  17:00        80.7        80.7     -35.126
  J186                 JUNCTION     0.000    0.748    97  11:00           0         237       0.060
  J187                 JUNCTION     0.750    0.750    97  11:00         234         234      -1.154
  J188                 JUNCTION     0.000    0.981    97  12:00           0         251      -0.003
  J189                 JUNCTION     0.992    0.992    97  12:00         251         251      -0.057
  J190                 JUNCTION     0.000    0.741    97  12:00           0         221      -0.001
  J191                 JUNCTION     0.748    0.748    97  12:00         221         221      -0.124
  J192                 JUNCTION     0.000    1.335    97  12:01           0         367       0.013
  J193                 JUNCTION     0.000    0.920    97  12:00           0         246       0.014
  J194                 JUNCTION     0.075    0.075   330  17:00        13.5        13.5     -10.442
  J195                 JUNCTION     0.463    0.463    97  12:00         121         121      -0.873
  J196                 JUNCTION     0.925    0.925    97  12:00         245         245      -0.333
  J197                 JUNCTION    85.969   85.969    17  17:00         789         789      -0.030
  O1                   OUTFALL      0.000   42.004   285  17:39           0    2.63e+04       0.000
  
  
  **********************
  Node Surcharge Summary
  **********************
  
  Surcharging occurs when water rises above the top of the highest conduit.
  ---------------------------------------------------------------------
                                               Max. Height   Min. Depth
                                   Hours       Above Crown    Below Rim
  Node                 Type      Surcharged         Meters       Meters
  ---------------------------------------------------------------------
  J2                   JUNCTION        0.91          0.000        0.000
  J4                   JUNCTION        2.38          0.000        0.000
  J5                   JUNCTION        0.67          0.000        0.000
  J6                   JUNCTION        0.80          0.000        0.000
  J7                   JUNCTION        1.15          0.000        0.000
  J8                   JUNCTION        3.49          0.000        0.000
  J10                  JUNCTION        0.09          0.000        0.000
  J11                  JUNCTION        1.00          0.000        0.000
  J13                  JUNCTION        1.95          0.000        0.000
  J15                  JUNCTION        2.58          0.000        0.000
  J16                  JUNCTION        0.32          0.000        0.000
  J17                  JUNCTION        2.36          0.000        0.000
  J18                  JUNCTION        4.77          0.000        0.000
  J20                  JUNCTION        0.94          0.000        0.000
  J23                  JUNCTION        1.66          0.000        0.000
  J24                  JUNCTION        0.93          0.000        0.000
  J25                  JUNCTION        3.78          0.000        0.000
  J26                  JUNCTION        4.96          0.000        0.000
  J27                  JUNCTION        4.60          0.000        0.000
  J28                  JUNCTION        0.05          0.000        0.000
  J29                  JUNCTION        0.26          0.000        0.000
  J30                  JUNCTION        4.86          0.000        0.000
  J31                  JUNCTION        6.68          0.000        0.000
  J32                  JUNCTION        5.51          0.000        0.000
  J33                  JUNCTION        4.01          0.000        0.000
  J34                  JUNCTION        0.54          0.000        0.000
  J36                  JUNCTION       17.99          0.000        0.000
  J37                  JUNCTION        1.14          0.000        0.000
  J40                  JUNCTION        1.75          0.000        0.000
  J42                  JUNCTION       17.10          0.000        0.000
  J43                  JUNCTION        5.41          0.000        0.000
  J44                  JUNCTION        1.00          0.000        0.000
  J45                  JUNCTION       36.59          0.000        0.000
  J46                  JUNCTION        8.49          0.000        0.000
  J47                  JUNCTION        5.84          0.000        0.000
  J48                  JUNCTION        0.59          0.000        0.000
  J49                  JUNCTION     8759.00          0.000        0.000
  J56                  JUNCTION        0.87          0.000        0.000
  J57                  JUNCTION        0.25          0.000        0.000
  J65                  JUNCTION        1.60          0.000        0.000
  J66                  JUNCTION        1.43          0.000        0.000
  J68                  JUNCTION        0.68          0.000        0.000
  J90                  JUNCTION        1.69          0.000        0.000
  J102                 JUNCTION        0.95          0.000        0.000
  J103                 JUNCTION        0.05          0.000        0.000
  J105                 JUNCTION        0.92          0.000        0.000
  J197                 JUNCTION        1.60          0.000        0.000
  
  
  *********************
  Node Flooding Summary
  *********************
  
  Flooding refers to all water that overflows a node, whether it ponds or not.
  --------------------------------------------------------------------------
                                                             Total   Maximum
                                 Maximum   Time of Max       Flood    Ponded
                        Hours       Rate    Occurrence      Volume     Depth
  Node                 Flooded       CMS   days hr:min    10^6 ltr    Meters
  --------------------------------------------------------------------------
  J2                      0.91    48.291     17  17:00      76.616     0.000
  J4                      2.37   127.511     17  17:00     655.637     0.000
[...]
  C90                     1.00   0.02  0.01  0.00  0.01  0.96  0.00  0.00  0.01  0.00
  C91                     1.00   0.00  0.02  0.00  0.01  0.96  0.00  0.00  0.15  0.00
  C92                     1.00   0.00  0.00  0.00  0.92  0.07  0.00  0.00  0.98  0.00
  C93                     1.00   0.00  0.17  0.00  0.20  0.62  0.00  0.00  0.49  0.00
  C94                     1.00   0.00  0.00  0.00  1.00  0.00  0.00  0.00  1.00  0.00
  C95                     1.00   0.00  0.00  0.00  0.51  0.48  0.00  0.00  0.97  0.00
  C96                     1.00   0.00  0.00  0.00  1.00  0.00  0.00  0.00  1.00  0.00
  C97                     1.00   0.00  0.02  0.00  0.38  0.60  0.00  0.00  0.16  0.00
  C98                     1.00   0.00  0.00  0.00  0.99  0.00  0.00  0.00  0.99  0.00
  C99                     1.00   0.00  0.02  0.00  0.20  0.78  0.00  0.00  0.64  0.00
  C100                    1.00   0.00  0.00  0.00  0.99  0.00  0.00  0.00  0.96  0.00
  C101                    1.00   0.00  0.04  0.00  0.96  0.00  0.00  0.00  1.00  0.00
  C102                    1.00   0.00  0.00  0.00  1.00  0.00  0.00  0.00  1.00  0.00
  C103                    1.00   0.00  0.00  0.00  1.00  0.00  0.00  0.00  0.00  0.00
  C104                    1.00   0.00  0.04  0.00  0.96  0.00  0.00  0.00  1.00  0.00
  C105                    1.00   0.00  0.00  0.00  0.98  0.02  0.00  0.00  0.99  0.00
  C106                    1.00   0.00  0.19  0.00  0.14  0.66  0.00  0.00  0.59  0.00
  C107                    1.00   0.00  0.00  0.00  1.00  0.00  0.00  0.00  1.00  0.00
  C108                    1.00   0.00  0.07  0.00  0.64  0.29  0.00  0.00  0.99  0.00
  C109                    1.00   0.00  0.00  0.00  0.81  0.19  0.00  0.00  0.00  0.00
  C110                    1.00   0.00  0.03  0.00  0.97  0.00  0.00  0.00  1.00  0.00
  C111                    1.00   0.00  0.00  0.00  1.00  0.00  0.00  0.00  1.00  0.00
  C112                    1.00   0.00  0.25  0.00  0.13  0.62  0.00  0.00  0.55  0.00
  C113                    1.00   0.00  0.00  0.00  1.00  0.00  0.00  0.00  1.00  0.00
  C114                    1.00   0.00  0.00  0.00  1.00  0.00  0.00  0.00  0.00  0.00
  C115                    1.00   0.00  0.22  0.00  0.78  0.00  0.00  0.00  1.00  0.00
  C116                    1.00   0.00  0.44  0.00  0.53  0.03  0.00  0.00  0.99  0.00
  C117                    1.00   0.00  0.00  0.00  1.00  0.00  0.00  0.00  1.00  0.00
  C118                    1.00   0.00  1.00  0.00  0.00  0.00  0.00  0.00  0.00  0.00
  C119                    1.00   0.00  0.00  0.00  0.99  0.00  0.00  0.00  1.00  0.00
  C120                    1.00   0.00  0.00  0.00  0.99  0.01  0.00  0.00  0.99  0.00
  C121                    1.00   0.00  0.02  0.00  0.95  0.02  0.00  0.00  0.95  0.00
  C122                    1.00   0.00  0.02  0.00  0.83  0.14  0.00  0.00  0.20  0.00
  C123                    1.00   0.00  0.00  0.00  1.00  0.00  0.00  0.00  0.99  0.00
  C124                    1.00   0.00  0.26  0.00  0.73  0.00  0.00  0.00  1.00  0.00
  C125                    1.00   0.00  0.15  0.00  0.84  0.01  0.00  0.00  1.00  0.00
  C126                    1.00   0.00  0.00  0.00  1.00  0.00  0.00  0.00  0.00  0.00
  C127                    1.00   0.00  0.00  0.00  1.00  0.00  0.00  0.00  0.98  0.00
  C128                    1.00   0.00  0.22  0.00  0.04  0.74  0.00  0.00  0.50  0.00
  C129                    1.00   0.00  0.00  0.00  1.00  0.00  0.00  0.00  1.00  0.00
  C130                    1.00   0.00  0.02  0.00  0.60  0.38  0.00  0.00  0.59  0.00
  C131                    1.00   0.00  0.00  0.00  1.00  0.00  0.00  0.00  1.00  0.00
  C132                    1.00   0.00  0.00  0.00  0.90  0.10  0.00  0.00  1.00  0.00
  C133                    1.00   0.00  0.64  0.00  0.36  0.00  0.00  0.00  1.00  0.00
  C134                    1.00   0.00  0.02  0.00  0.02  0.95  0.00  0.00  0.19  0.00
  C135                    1.00   0.00  0.00  0.00  0.93  0.07  0.00  0.00  0.99  0.00
  C136                    1.00   0.00  0.22  0.00  0.05  0.72  0.00  0.00  0.48  0.00
  C137                    1.00   0.00  0.00  0.00  1.00  0.00  0.00  0.00  1.00  0.00
  C138                    1.00   0.00  0.00  0.00  1.00  0.00  0.00  0.00  1.00  0.00
  C139                    1.00   0.00  0.02  0.00  0.46  0.51  0.00  0.00  0.75  0.00
  C140                    1.00   0.01  0.02  0.00  0.75  0.22  0.00  0.00  0.00  0.00
  C141                    1.00   0.00  0.13  0.00  0.42  0.45  0.00  0.00  0.60  0.00
  C142                    1.00   0.00  0.00  0.00  0.99  0.01  0.00  0.00  0.96  0.00
  C143                    1.00   0.00  0.00  0.00  1.00  0.00  0.00  0.00  1.00  0.00
  C144                    1.00   0.00  0.11  0.00  0.88  0.01  0.00  0.00  1.00  0.00
  C145                    1.00   0.00  0.00  0.00  1.00  0.00  0.00  0.00  1.00  0.00
  C146                    1.00   0.00  0.11  0.00  0.89  0.00  0.00  0.00  1.00  0.00
  C147                    1.00   0.00  0.00  0.00  1.00  0.00  0.00  0.00  0.99  0.00
  C148                    1.00   0.00  0.03  0.00  0.97  0.01  0.00  0.00  1.00  0.00
  C149                    1.00   0.00  0.00  0.00  1.00  0.00  0.00  0.00  1.00  0.00
  C150                    1.00   0.00  0.03  0.00  0.96  0.00  0.00  0.00  1.00  0.00
  C151                    1.00   0.00  0.27  0.00  0.72  0.00  0.00  0.00  1.00  0.00
  C152                    1.00   0.00  0.00  0.00  0.99  0.00  0.00  0.00  0.96  0.00
  C153                    1.00   0.00  0.00  0.00  1.00  0.00  0.00  0.00  0.02  0.00
  C154                    1.00   0.00  0.33  0.00  0.60  0.06  0.00  0.00  0.92  0.00
  C155                    1.00   0.00  0.01  0.00  0.99  0.00  0.00  0.00  0.99  0.00
  C156                    1.00   0.01  0.18  0.00  0.54  0.26  0.00  0.00  1.00  0.00
  C157                    1.00   0.00  0.42  0.00  0.58  0.00  0.00  0.00  1.00  0.00
  C158                    1.00   0.00  0.00  0.00  1.00  0.00  0.00  0.00  0.99  0.00
  C159                    1.00   0.00  0.41  0.00  0.57  0.02  0.00  0.00  1.00  0.00
  C160                    1.00   0.00  0.00  0.00  1.00  0.00  0.00  0.00  1.00  0.00
  C162                    1.00   0.00  0.00  0.00  0.99  0.00  0.00  0.00  0.99  0.00
  C163                    1.00   0.00  0.26  0.00  0.16  0.58  0.00  0.00  0.68  0.00
  C164                    1.00   0.00  0.46  0.00  0.41  0.13  0.00  0.00  1.00  0.00
  C165                    1.00   0.00  0.00  0.00  1.00  0.00  0.00  0.00  0.35  0.00
  C166                    1.00   0.00  0.00  0.00  1.00  0.00  0.00  0.00  1.00  0.00
  C167                    1.00   0.00  0.12  0.00  0.87  0.00  0.00  0.00  1.00  0.00
  C168                    1.00   0.00  0.02  0.00  0.96  0.02  0.00  0.00  0.99  0.00
  C169                    1.00   0.00  0.00  0.00  1.00  0.00  0.00  0.00  1.00  0.00
  C170                    1.00   0.00  0.26  0.00  0.15  0.58  0.00  0.00  0.79  0.00
  C171                    1.00   0.00  0.00  0.00  1.00  0.00  0.00  0.00  1.00  0.00
  C172                    1.00   0.00  0.11  0.00  0.31  0.58  0.00  0.00  0.80  0.00
  C173                    1.00   0.00  0.00  0.00  1.00  0.00  0.00  0.00  1.00  0.00
  C174                    1.00   0.00  0.00  0.00  1.00  0.00  0.00  0.00  0.99  0.00
  C175                    1.00   0.00  0.29  0.00  0.64  0.06  0.00  0.00  0.99  0.00
  C176                    1.00   0.00  0.16  0.00  0.22  0.61  0.00  0.00  0.57  0.00
  C177                    1.00   0.00  0.00  0.00  0.99  0.01  0.00  0.00  0.99  0.00
  C178                    1.00   0.00  0.13  0.00  0.39  0.48  0.00  0.00  0.83  0.00
  C179                    1.00   0.00  0.00  0.00  1.00  0.00  0.00  0.00  0.99  0.00
  C180                    1.00   0.00  0.47  0.00  0.51  0.02  0.00  0.00  0.99  0.00
  C181                    1.00   0.00  0.00  0.00  1.00  0.00  0.00  0.00  0.96  0.00
  C182                    1.00   0.00  0.18  0.00  0.18  0.64  0.00  0.00  0.64  0.00
  C183                    1.00   0.00  0.00  0.00  1.00  0.00  0.00  0.00  0.99  0.00
  C184                    1.00   0.00  0.04  0.00  0.69  0.27  0.00  0.00  0.75  0.00
  C185                    1.00   0.00  0.00  0.00  0.99  0.01  0.00  0.00  0.99  0.00
  C186                    1.00   0.00  0.11  0.00  0.53  0.36  0.00  0.00  0.67  0.00
  C187                    1.00   0.00  0.00  0.00  1.00  0.00  0.00  0.00  1.00  0.00
  C188                    1.00   0.00  0.00  0.00  1.00  0.00  0.00  0.00  1.00  0.00
  C189                    1.00   0.00  0.59  0.00  0.41  0.00  0.00  0.00  1.00  0.00
  C190                    1.00   0.00  0.20  0.00  0.76  0.04  0.00  0.00  0.98  0.00
  C191                    1.00   0.00  0.13  0.00  0.43  0.44  0.00  0.00  0.84  0.00
  C192                    1.00   0.00  0.00  0.00  1.00  0.00  0.00  0.00  0.94  0.00
  C193                    1.00   0.00  0.00  0.00  1.00  0.00  0.00  0.00  0.46  0.00
  C194                    1.00   0.00  0.00  0.00  1.00  0.00  0.00  0.00  0.95  0.00
  C195                    1.00   0.00  0.00  0.00  1.00  0.00  0.00  0.00  0.99  0.00
  
  
  *************************
  Conduit Surcharge Summary
  *************************
  
  ----------------------------------------------------------------------------
                                                           Hours        Hours 
                         --------- Hours Full --------   Above Full   Capacity
  Conduit                Both Ends  Upstream  Dnstream   Normal Flow   Limited
  ----------------------------------------------------------------------------
  C13                         0.01      0.01      2.58      0.01         0.01
  C14                         0.01      0.01      2.58      0.01         0.01
  C15                         0.01      0.01      4.77      0.01         0.01
  C16                         2.58      2.58      4.77      0.01         0.01
  C21                         4.75      4.77      4.96      0.01         0.01
  C27                         0.26      0.26      4.96      0.01         0.01
  C29                         0.01      0.01      6.68      0.01         0.01
  C30                         0.01      0.01      5.51      0.01         0.01
  C31                         5.51      5.51      6.68      0.01         0.01
  C32                         4.00      6.68      4.00      2.89         0.01
  C33                         0.54      0.54      4.00      0.01         0.01
  C35                         3.94      4.00     17.98      0.01         0.01
  C36                         0.01      0.01     17.98      0.06         0.01
  C38                         1.75      1.75     17.98      0.01         0.01
  C39                         0.01      0.01     17.98      0.01         0.01
  C40                        14.82     17.98     17.10      4.74         0.01
  C41                         4.96      4.96      5.41      0.01         0.01
  C42                         1.00      1.00      5.41      0.12         0.01
  C43                         5.41      5.41     36.57      0.01         0.01
  C44                        17.10     17.10     36.57      6.38         0.01
  C45                         8.46     36.57      8.46     38.67         0.01
  C46                         0.01      0.01      5.84      0.01         0.01
  C47                         0.01      0.01      0.01      0.69         0.01
  C48                         0.01      0.01      5.84      0.70         0.01
  C49                         5.84      8.46      5.84     12.13         0.01
  C50                         0.01      0.01      5.65      0.01         0.01
  C53                         0.01      0.01      5.51      0.01         0.01
  C56                         0.01      5.84      0.01      9.17         0.01
  C63                         1.60      1.60      8.46      0.01         0.01
  C64                         1.43      1.43      8.46      0.09         0.01
  C65                         0.01      0.01      0.01      0.08         0.01
  C66                         0.01      0.01      1.60      0.01         0.01
  C83                         0.01      0.01      0.01      1.69         0.01
  C85                         0.01      0.01      1.75      0.01         0.01
  C97                         0.05      0.05      0.95      0.21         0.01
  C98                         1.53      1.64      1.75      1.56         1.53
  C99                         0.01      0.01      0.92      0.01         0.01
  C100                        1.52      1.54      1.60      1.50         1.52
  
  
  ***************************
  Link Pollutant Load Summary
  ***************************
  
  ----------------------------------
                          Bifenthrin
  Link                            kg
  ----------------------------------
  C1                           0.414
  C2                           0.629
  C3                           4.464
  C4                           6.591
  C5                           5.336
  C6                          10.800
  C7                           1.169
  C8                           1.467
  C9                           1.740
  C10                          1.972
  C11                          3.721
  C12                          0.856
  C13                          6.547
  C14                          0.540
  C15                          0.093
  C16                          6.575
  C17                          1.362
  C18                          2.122
  C19                          3.552
  C20                          3.042
  C21                          6.821
  C22                         14.763
  C23                          7.550
  C24                          1.922
  C26                         25.574
  C27                          1.778
  C28                         28.095
  C29                          6.681
  C30                         33.397
  C31                         41.973
  C32                         52.473
  C33                          1.772
  C34                          2.345
  C35                         55.734
  C36                          1.830
  C37                          0.479
  C38                         29.972
  C39                          0.179
  C40                         85.154
  C41                          9.143
  C42                          1.011
  C43                          9.785
  C44                         84.581
  C45                         91.372
  C46                          0.669
  C47                          0.959
  C48                          1.141
  C49                         98.815
  C50                          0.720
  C51                          1.904
  C52                          1.932
  C53                          6.918
  C54                          2.743
  C55                          2.093
  C56                        100.547
  C57                        104.672
  C58                          0.821
  C59                          0.313
  C60                          2.600
  C61                        107.948
  C62                          3.282
  C63                          6.358
  C64                          3.249
  C65                          1.194
  C66                          1.209
  C67                        198.696
  C68                        202.426
  C69                         49.311
  C70                          0.498
  C71                          1.315
  C72                          1.495
  C73                          3.596
  C74                          3.581
  C75                        158.995
  C76                          2.986
  C77                          3.703
  C78                          6.152
  C79                          0.841
  C80                        199.245
  C81                        160.764
  C82                          0.004
  C83                          3.394
  C84                         22.847
  C85                         26.989
  C86                          0.705
  C87                          5.805
  C88                         40.623
  C89                          1.994
  C90                          1.979
  C91                          1.979
  C92                          2.088
  C93                          1.878
  C94                          2.471
  C95                         34.407
  C96                          3.868
  C97                          3.784
  C98                          4.413
  C99                          3.258
  C100                         3.644
  C101                         5.017
  C102                        46.208
  C103                        34.300
  C104                         0.561
  C105                        42.863
  C106                         0.845
  C107                         1.010
  C108                         3.838
  C109                         4.002
  C110                         1.089
  C111                        34.070
  C112                         1.600
  C113                         1.674
  C114                        41.756
  C115                         0.702
  C116                         1.127
  C117                         8.100
  C118                         0.000
  C119                        22.779
  C120                         4.822
  C121                         4.448
  C122                         4.476
  C123                        35.142
  C124                         2.121
  C125                         3.018
  C126                        31.145
  C127                         2.013
  C128                         1.409
  C129                         1.447
  C130                         4.677
  C131                         5.899
  C132                         6.172
  C133                         0.230
  C134                         3.225
  C135                         3.378
  C136                         1.415
  C137                         1.474
  C138                        12.563
  C139                         6.288
  C140                         6.365
  C141                         1.788
  C142                         1.898
  C143                         8.622
  C144                         2.687
  C145                        24.520
  C146                         0.987
  C147                        29.328
  C148                         6.182
  C149                        12.548
  C150                         1.127
  C151                         0.597
  C152                        12.306
  C153                         2.476
  C154                         0.610
  C155                         1.247
  C156                         1.293
  C157                         0.589
  C158                        13.946
  C159                         1.196
  C160                         4.613
  C162                         2.185
  C163                         2.014
  C164                         3.112
  C165                         1.131
  C166                        11.016
  C167                         1.136
  C168                         9.636
  C169                         7.372
  C170                         0.995
  C171                         1.354
  C172                         3.654
  C173                         3.999
  C174                         7.424
  C175                         3.186
  C176                         2.155
  C177                         2.306
  C178                         2.835
  C179                         3.190
  C180                         1.081
  C181                         7.962
  C182                         2.359
  C183                         2.593
  C184                         2.648
  C185                         2.798
  C186                         2.363
  C187                         2.711
  C188                         3.814
  C189                         0.182
  C190                         1.269
  C191                         2.499
  C192                         2.612
  C193                       109.447
  C194                        49.271
  C195                         3.328
  

  Analysis begun on:  Wed Apr 29 14:17:15 2020
  Analysis ended on:  Wed Apr 29 14:19:47 2020
  Total elapsed time: 00:02:32