
  EPA STORM WATER MANAGEMENT MODEL - VERSION 5.1 (Build 5.3.0.dev0)
  --------------------------------------------------------------

  
  *********************
  Rainfall File Summary
  *********************
  Station    First        Last         Recording   Periods    Periods    Periods
  ID         Date         Date         Frequency  w/Precip    Missing    Malfunc.
  -------------------------------------------------------------------------------
  swmm_wet   01/01/2004   01/01/2018      60 min    122736          0          0

  
  *********************************************************
  NOTE: The summary statistics displayed in this report are
  based on results found at every computational time step,  
  not just on results from each reporting time step.
  *********************************************************
  
  ****************
  Analysis Options
  ****************
  Flow Units ............... CMS
  Process Models:
    Rainfall/Runoff ........ YES
    RDII ................... NO
    Snowmelt ............... NO
    Groundwater ............ YES
    Flow Routing ........... YES
    Ponding Allowed ........ NO
    Water Quality .......... YES
  Infiltration Method ...... HORTON
  Flow Routing Method ...... DYNWAVE
  Surcharge Method ......... EXTRAN
  Starting Date ............ 01/01/2009 00:00:00
  Ending Date .............. 12/31/2009 23:00:00
  Antecedent Dry Days ...... 5.0
  Report Time Step ......... 00:00:00
  Wet Time Step ............ 00:05:00
  Dry Time Step ............ 01:00:00
  Routing Time Step ........ 60.00 sec
  Variable Time Step ....... YES
  Maximum Trials ........... 8
  Number of Threads ........ 1
  Head Tolerance ........... 0.001500 m
  
  
  **************************        Volume         Depth
  Runoff Quantity Continuity     hectare-m            mm
  **************************     ---------       -------
  Total Precipitation ......      3854.176       492.738
  Evaporation Loss .........       285.728        36.529
  Infiltration Loss ........      2199.366       281.178
  Surface Runoff ...........      1369.357       175.066
  Final Storage ............         0.302         0.039
  Continuity Error (%) .....        -0.015
  
  
  **************************    Bifenthrin
  Runoff Quality Continuity             kg
  **************************    ----------
  Initial Buildup ..........         0.000
  Surface Buildup ..........       276.004
  Wet Deposition ...........         0.000
  Sweeping Removal .........         0.000
  Infiltration Loss ........         0.000
  BMP Removal ..............         0.000
  Surface Runoff ...........       274.911
  Remaining Buildup ........         1.092
  Continuity Error (%) .....         0.000
  
  
  **************************        Volume         Depth
  Groundwater Continuity         hectare-m            mm
  **************************     ---------       -------
  Initial Storage ..........     28511.039      3645.000
  Infiltration .............      2199.366       281.178
  Upper Zone ET ............      1546.879       197.761
  Lower Zone ET ............         0.000         0.000
  Deep Percolation .........        71.384         9.126
  Groundwater Flow .........      6483.147       828.839
  Final Storage ............     22609.016      2890.455
  Continuity Error (%) .....        -0.000
  
  
  **************************        Volume        Volume
  Flow Routing Continuity        hectare-m      10^6 ltr
  **************************     ---------     ---------
  Dry Weather Inflow .......         0.000         0.000
  Wet Weather Inflow .......      1369.209     13692.236
  Groundwater Inflow .......      6483.143     64832.109
  RDII Inflow ..............         0.000         0.000
  External Inflow ..........         0.000         0.000
  External Outflow .........      7477.011     74770.891
  Flooding Loss ............       392.942      3929.464
  Evaporation Loss .........        17.033       170.334
  Exfiltration Loss ........         0.000         0.000
  Initial Stored Volume ....         0.001         0.006
  Final Stored Volume ......         0.283         2.834
  Continuity Error (%) .....        -0.445
  
  
  **************************    Bifenthrin
  Quality Routing Continuity            kg
  **************************    ----------
  Dry Weather Inflow .......         0.000
  Wet Weather Inflow .......       274.841
  Groundwater Inflow .......         0.000
  RDII Inflow ..............         0.000
  External Inflow ..........         0.000
  External Outflow .........       274.836
  Flooding Loss ............         1.511
  Exfiltration Loss ........         0.000
  Mass Reacted .............         4.293
  Initial Stored Mass ......         0.000
  Final Stored Mass ........         0.011
  Continuity Error (%) .....        -2.114
  
  
  *************************
  Highest Continuity Errors
  *************************
  Node J169 (8.88%)
  
  
  ***************************
  Time-Step Critical Elements
  ***************************
  Link C164 (39.08%)
  Link C95 (9.78%)
  Link C116 (3.20%)
  Link C180 (2.83%)
  Link C175 (1.53%)
  
  
  ********************************
  Highest Flow Instability Indexes
  ********************************
  Link C164 (145)
  Link C165 (140)
  Link C180 (79)
  Link C116 (76)
  Link C175 (71)
  
  
  *************************
  Routing Time Step Summary
  *************************
  Minimum Time Step           :     1.10 sec
  Average Time Step           :    39.49 sec
  Maximum Time Step           :    60.00 sec
  Percent in Steady State     :     0.00
  Average Iterations per Step :     5.58
  Percent Not Converging      :    52.19
  
  
  ***************************
  Subcatchment Runoff Summary
  ***************************
  
  ------------------------------------------------------------------------------------------------------------------------------
                            Total      Total      Total      Total     Imperv       Perv      Total       Total     Peak  Runoff
                           Precip      Runon       Evap      Infil     Runoff     Runoff     Runoff      Runoff   Runoff   Coeff
  Subcatchment                 mm         mm         mm         mm         mm         mm         mm    10^6 ltr      CMS
  ------------------------------------------------------------------------------------------------------------------------------
  S1                       492.74       0.00      22.23     392.08      37.19      41.32      78.51       45.38     0.31   0.159
  S2                       492.74       0.00      24.86     350.76      77.43      39.76     117.19       47.61     0.30   0.238
  S3                       492.74       0.00      25.94     370.12      67.79      28.95      96.74      220.23     1.12   0.196
  S4                       492.74       0.00      23.26     346.97      73.77      48.83     122.60       12.62     0.10   0.249
  S5                       492.74       0.00      28.71     319.93     112.01      32.13     144.14      228.82     1.19   0.293
  S6                       492.74       0.00      25.39     355.57      75.97      35.87     111.84       33.82     0.19   0.227
  S7                       492.74       0.00      35.71     235.02     193.62      28.41     222.03      118.89     0.59   0.451
  S8                       492.74       0.00      29.85     282.18     144.65      36.11     180.76       77.81     0.44   0.367
  S9                       492.74       0.00      33.50     270.42     160.50      28.35     188.85      106.26     0.52   0.383
  S10                      492.74       0.00      27.12     355.91      81.42      28.35     109.77       79.44     0.39   0.223
  S11                      492.74       0.00      29.30     312.14     119.36      31.99     151.35       59.75     0.31   0.307
  S12                      492.74       0.00      29.71     305.52     125.45      32.11     157.55       50.09     0.26   0.320
  S13                      492.74       0.00      24.04     406.40      36.50      25.94      62.45       54.90     0.28   0.127
  S14                      492.74       0.00      35.28     319.69     122.83      14.97     137.80      386.02     1.54   0.280
  S15                      492.74       0.00      34.24     246.84     181.64      30.05     211.70       85.79     0.44   0.430
  S16                      492.74       0.00      21.03     436.53       0.14      35.13      35.27       13.93     0.10   0.072
  S17                      492.74       0.00      19.54     418.95       1.83      52.51      54.34        2.99     0.03   0.110
  S18                      492.74       0.00      32.69     261.23     167.16      31.70     198.86      121.17     0.63   0.404
  S19                      492.74       0.00      42.06     181.02     246.89      22.77     269.67       69.92     0.32   0.547
  S20                      492.74       0.00      32.89     260.75     167.84      31.29     199.14      184.89     0.96   0.404
  S21                      492.74       0.00      31.97     305.07     130.23      25.50     155.73      162.73     0.75   0.316
  S22                      492.74       0.00      36.83     257.38     175.13      23.42     198.55      106.67     0.48   0.403
  S23                      492.74       0.00      21.25     425.47       9.43      36.67      46.11       10.90     0.08   0.094
  S24                      492.74       0.00      28.61     328.53     105.29      30.36     135.65       60.20     0.30   0.275
  S25                      492.74       0.00      33.26     262.84     166.58      30.09     196.67       45.60     0.23   0.399
  S26                      492.74       0.00      32.83     301.62     134.28      24.04     158.32       88.67     0.40   0.321
  S27                      492.74       0.00      35.81     249.31     181.17      26.47     207.64       97.18     0.46   0.421
  S28                      492.74       0.00      37.24     275.39     160.32      19.80     180.13      243.73     1.03   0.366
  S29                      492.74       0.00      39.19     255.16     178.66      19.74     198.40      306.54     1.29   0.403
  S30                      492.74       0.00      35.14     275.12     158.64      23.86     182.50       65.40     0.29   0.370
  S31                      492.74       0.00      27.32     330.99      99.99      34.51     134.49       36.12     0.20   0.273
  S32                      492.74       0.00      41.57     227.21     204.05      19.91     223.96      107.86     0.46   0.455
  S33                      492.74       0.00      33.84     272.12     159.56      27.26     186.81      107.45     0.51   0.379
  S34                      492.74       0.00      36.59     246.13     184.61      25.43     210.04      108.69     0.50   0.426
  S35                      492.74       0.00      26.87     364.22      74.87      26.83     101.71       51.24     0.25   0.206
  S36                      492.74       0.00      20.77     409.84      16.88      45.35      62.22        4.14     0.03   0.126
  S37                      492.74       0.00      30.53     329.64     108.82      23.79     132.62       87.85     0.40   0.269
  S38                      492.74       0.00      28.86     346.06      93.12      24.76     117.88       88.33     0.41   0.239
  S39                      492.74       0.00      26.67     313.98     111.14      41.02     152.16       12.93     0.08   0.309
  S40                      492.74       0.00      36.13     250.80     180.17      25.66     205.84       74.22     0.35   0.418
  S41                      492.74       0.00      32.14     275.77     154.05      30.82     184.87       39.01     0.20   0.375
  S42                      492.74       0.00      34.81     273.56     159.55      24.84     184.39      145.70     0.66   0.374
  S43                      492.74       0.00      36.88     248.36     182.93      24.58     207.52      143.72     0.66   0.421
  S44                      492.74       0.00      47.59     180.36     247.45      17.31     264.77      211.96     0.87   0.537
  S45                      492.74       0.00      26.52     290.87     129.84      45.58     175.43        4.65     0.03   0.356
  S46                      492.74       0.00      29.53     302.03     127.81      33.42     161.23       38.71     0.21   0.327
  S47                      492.74       0.00      20.75     385.45      33.43      53.21      86.64        4.29     0.04   0.176
  S48                      492.74       0.00      43.58     201.30     227.95      19.90     247.85      184.61     0.79   0.503
  S49                      492.74       0.00      36.69     249.54     181.75      24.78     206.53      186.35     0.85   0.419
  S50                      492.74       0.00      36.80     285.25     151.85      18.86     170.71      193.71     0.81   0.346
  S51                      492.74       0.00      41.94     210.55     219.13      21.11     240.25      100.72     0.44   0.488
  S52                      492.74       0.00      22.33     435.43       9.65      25.42      35.07       33.07     0.18   0.071
  S53                      492.74       0.00      25.64     358.38      74.87      33.91     108.78       28.01     0.15   0.221
  S54                      492.74       0.00      39.91     235.30     196.22      21.32     217.54       87.84     0.38   0.441
  S55                      492.74       0.00      48.25     183.11     244.80      16.56     261.36      283.64     1.14   0.530
  S56                      492.74       0.00      21.88     422.81      15.13      33.00      48.13       38.44     0.24   0.098
  S57                      492.74       0.00      38.28     296.77     143.35      14.36     157.72      233.41     0.91   0.320
  S58                      492.74       0.00      24.67     383.03      54.43      30.67      85.11       64.51     0.34   0.173
  S59                      492.74       0.00      19.38     419.53       0.00      53.93      53.93        3.70     0.04   0.109
  S60                      492.74       0.00      40.80     260.10     175.20      16.69     191.89      243.92     0.98   0.389
  S61                      492.74       0.00      48.87     124.29     302.33      17.23     319.56       62.33     0.28   0.649
  S62                      492.74       0.00      22.04     370.49      50.99      49.32     100.31        4.42     0.04   0.204
  S63                      492.74       0.00      48.09     168.13     258.98      17.53     276.51      168.15     0.70   0.561
  S64                      492.74       0.00      39.01     263.53     171.43      18.78     190.21      130.61     0.54   0.386
  S65                      492.74       0.00      17.69     402.13       0.00      73.02      73.02        0.60     0.01   0.148
  S66                      492.74       0.00      44.50     239.68     193.75      14.85     208.61      266.04     1.03   0.423
  S67                      492.74       0.00      43.65     234.92     197.79      16.39     214.17      238.24     0.95   0.435
  S68                      492.74       0.00      35.62     300.76     138.25      18.16     156.41      231.25     0.96   0.317
  S69                      492.74       0.00      23.89     372.32      58.39      38.21      96.60       24.86     0.15   0.196
  S70                      492.74       0.00      20.38     396.80      23.18      52.48      75.66        5.81     0.06   0.154
  S71                      492.74       0.00      28.78     330.17     104.51      29.33     133.84       71.69     0.36   0.272
  S72                      492.74       0.00      39.67     271.43     165.13      16.54     181.67      227.48     0.91   0.369
  S73                      492.74       0.00      29.48     314.01     118.37      30.92     149.29       65.27     0.33   0.303
  S74                      492.74       0.00      31.24     305.07     128.91      27.56     156.47       76.72     0.37   0.318
  S75                      492.74       0.00      26.31     335.95      93.30      37.25     130.54       31.38     0.18   0.265
  S76                      492.74       0.00      23.65     382.71      50.29      36.18      86.46       28.74     0.17   0.175
  S77                      492.74       0.00      46.79     249.96     184.74      11.27     196.02     1008.17     3.67   0.398
  S78                      492.74       0.00      43.12     220.88     210.11      18.63     228.74      306.70     1.27   0.464
  S79                      492.74       0.00      27.35     349.18      86.86      29.41     116.27       68.41     0.34   0.236
  S80                      492.74       0.00      32.96     305.51     131.40      22.91     154.30      136.17     0.60   0.313
  S81                      492.74       0.00      32.16     221.55     202.86      36.22     239.08        7.14     0.04   0.485
  S82                      492.74       0.00      40.96     208.37     220.88      22.54     243.42      104.83     0.47   0.494
  S83                      492.74       0.00      44.76     216.59     214.21      17.17     231.38      325.58     1.31   0.470
  S84                      492.74       0.00      34.17     215.93     209.99      32.67     242.67       11.11     0.06   0.492
  S85                      492.74       0.00      45.87     194.32     234.54      18.00     252.54      269.06     1.11   0.513
  S86                      492.74       0.00      41.89     185.65     242.42      22.78     265.20      112.98     0.52   0.538
  S87                      492.74       0.00      39.26     302.70     138.91      11.95     150.85      399.21     1.50   0.306
  S88                      492.74       0.00      40.98     229.99     201.37      20.41     221.77      134.67     0.57   0.450
  S89                      492.74       0.00      34.14     285.94     148.61      24.07     172.68      130.69     0.59   0.350
  S90                      492.74       0.00      27.84     326.75     104.60      33.60     138.20       33.57     0.18   0.280
  S91                      492.74       0.00      39.66     246.33     186.49      20.27     206.76      338.18     1.43   0.420
  S92                      492.74       0.00      36.06     240.40     189.16      27.14     216.31       56.86     0.27   0.439
  S93                      492.74       0.00      29.63     282.37     144.07      36.73     180.79       28.59     0.16   0.367
  S94                      492.74       0.00      32.37     282.38     148.96      29.06     178.02       31.55     0.15   0.361
  S95                      492.74       0.00      47.72     173.32     254.09      17.59     271.68      108.84     0.45   0.551
  S96                      492.74       0.00      31.49     266.18     161.09      34.03     195.12       29.49     0.16   0.396
  S97                      492.74       0.00      24.37     368.74      62.85      36.84      99.70       34.20     0.20   0.202
  S98                      492.74       0.00      28.22     339.68      96.12      28.78     124.90       76.59     0.38   0.253
  S99                      492.74       0.00      27.45     349.40      86.99      28.95     115.94       47.10     0.23   0.235
  S100                     492.74       0.00      27.19     350.00      85.81      29.80     115.61       48.42     0.25   0.235
  S102                     492.74       0.00      26.54     362.40      75.08      28.79     103.87       30.78     0.15   0.211
  S103                     492.74       0.00      45.45     214.70     215.96      16.61     232.58      259.78     1.04   0.472
  S101                     492.74       0.00      44.26     203.62     225.90      18.95     244.85      233.70     0.98   0.497
  S104                     492.74       0.00      41.89     280.03     158.59      12.29     170.88      459.43     1.72   0.347
  S105                     492.74       0.00      47.18     184.08     244.00      17.45     261.46      170.86     0.70   0.531
  S106                     492.74       0.00      45.43     201.96     227.50      17.84     245.34      213.01     0.87   0.498
  S107                     492.74       0.00      24.96     385.08      54.24      28.53      82.76       25.04     0.13   0.168
  S108                     492.74       0.00      34.89     290.36     145.88      21.64     167.52      120.32     0.52   0.340
  S109                     492.74       0.00      39.91     235.50     196.04      21.30     217.34      171.98     0.74   0.441
  S110                     492.74       0.00      39.93     255.24     178.96      18.62     197.59      141.34     0.58   0.401
  S111                     492.74       0.00      33.94     213.90     211.78      33.16     244.94       10.15     0.06   0.497
  S112                     492.74       0.00      37.20     257.32     175.47      22.77     198.24       78.09     0.34   0.402
  S113                     492.74       0.00      38.53     250.80     181.98      21.44     203.42      160.72     0.69   0.413
  
  
  *******************
  Groundwater Summary
  *******************
  
  -----------------------------------------------------------------------------------------------------
                                            Total    Total  Maximum  Average  Average    Final    Final
                          Total    Total    Lower  Lateral  Lateral    Upper    Water    Upper    Water
                          Infil     Evap  Seepage  Outflow  Outflow   Moist.    Table   Moist.    Table
  Subcatchment               mm       mm       mm       mm      CMS                 m                 m
  -----------------------------------------------------------------------------------------------------
  S1                     392.08   283.73     9.15   891.81     0.28     0.15     5.22     0.14     5.04
  S2                     350.76   255.55     9.14   868.11     0.19     0.15     5.22     0.14     5.04
  S3                     370.12   261.55     9.15   878.82     1.09     0.15     5.22     0.14     5.04
  S4                     346.97   258.76     9.14   865.70     0.05     0.15     5.22     0.14     5.04
  S5                     319.93   230.54     9.14   850.40     0.76     0.15     5.22     0.14     5.04
  S6                     355.57   256.32     9.14   870.83     0.14     0.15     5.22     0.14     5.04
  S7                     235.02   171.30     9.12   802.45     0.26     0.15     5.20     0.15     5.04
  S8                     282.18   208.18     9.13   828.76     0.21     0.15     5.21     0.15     5.04
  S9                     270.42   195.60     9.12   822.08     0.27     0.15     5.21     0.15     5.04
  S10                    355.91   251.82     9.14   870.71     0.35     0.15     5.22     0.14     5.04
  S11                    312.14   225.32     9.13   845.94     0.19     0.15     5.21     0.14     5.04
  S12                    305.52   221.03     9.13   842.16     0.15     0.15     5.21     0.14     5.04
  S13                    406.40   283.47     9.15   899.17     0.42     0.15     5.23     0.14     5.04
  S14                    319.69   219.70     9.14   849.10     1.34     0.15     5.21     0.15     5.04
  S15                    246.84   180.72     9.12   808.84     0.19     0.15     5.21     0.15     5.04
  S16                    436.53   309.09     9.16   916.95     0.19     0.15     5.23     0.14     5.04
  S17                    418.95   308.39     9.16   907.23     0.03     0.15     5.23     0.14     5.04
  S18                    261.23   191.63     9.12   816.82     0.29     0.15     5.21     0.15     5.04
  S19                    181.02   130.96     9.10   772.36     0.12     0.16     5.20     0.15     5.03
  S20                    260.75   191.06     9.12   816.55     0.44     0.15     5.21     0.15     5.04
  S21                    305.07   216.61     9.13   841.69     0.50     0.15     5.21     0.15     5.04
  S22                    257.38   183.64     9.12   814.70     0.26     0.15     5.21     0.15     5.04
  S23                    425.47   302.79     9.16   910.74     0.11     0.15     5.23     0.14     5.04
  S24                    328.53   235.09     9.14   855.25     0.21     0.15     5.22     0.14     5.04
  S25                    262.84   191.68     9.12   817.76     0.11     0.15     5.21     0.15     5.04
  S26                    301.62   213.42     9.13   839.65     0.27     0.15     5.21     0.15     5.04
  S27                    249.31   180.00     9.12   810.32     0.22     0.15     5.21     0.15     5.04
  S28                    275.39   193.51     9.12   824.54     0.65     0.15     5.21     0.15     5.04
  S29                    255.16   179.41     9.12   813.51     0.74     0.15     5.21     0.15     5.04
  S30                    275.12   195.89     9.12   824.62     0.17     0.15     5.21     0.15     5.04
  S31                    330.99   239.29     9.14   856.75     0.13     0.15     5.22     0.14     5.04
  S32                    227.21   159.21     9.11   798.78     0.23     0.15     5.20     0.15     5.04
  S33                    272.12   196.04     9.12   823.03     0.28     0.15     5.21     0.15     5.04
  S34                    246.13   177.02     9.12   808.63     0.25     0.15     5.20     0.15     5.04
  S35                    364.22   256.34     9.15   875.34     0.24     0.15     5.22     0.14     5.04
  S36                    409.84   297.90     9.16   902.04     0.03     0.15     5.23     0.14     5.04
  S37                    329.64   231.69     9.14   855.52     0.32     0.15     5.22     0.14     5.04
  S38                    346.06   243.09     9.14   864.89     0.36     0.15     5.22     0.14     5.04
  S39                    313.98   232.17     9.13   846.94     0.04     0.15     5.21     0.14     5.04
  S40                    250.80   180.50     9.12   811.14     0.17     0.15     5.21     0.15     5.04
  S41                    275.77   200.64     9.13   825.15     0.10     0.15     5.21     0.15     5.04
  S42                    273.56   195.48     9.12   823.77     0.38     0.15     5.21     0.15     5.04
  S43                    248.36   178.02     9.12   809.85     0.33     0.15     5.21     0.15     5.04
  S44                    180.36   126.19     9.10   772.49     0.38     0.16     5.20     0.15     5.03
  S45                    290.87   219.84     9.13   833.27     0.01     0.15     5.21     0.14     5.04
  S46                    302.03   219.54     9.13   840.18     0.11     0.15     5.21     0.14     5.04
  S47                    385.45   286.80     9.15   887.81     0.02     0.15     5.22     0.14     5.04
  S48                    201.30   141.67     9.11   784.37     0.36     0.16     5.20     0.15     5.03
  S49                    249.54   178.99     9.12   810.48     0.43     0.15     5.21     0.15     5.04
  S50                    285.25   199.40     9.13   830.03     0.54     0.15     5.21     0.15     5.04
  S51                    210.55   148.56     9.11   789.63     0.20     0.16     5.20     0.15     5.03
  S52                    435.43   302.28     9.16   915.59     0.45     0.15     5.23     0.14     5.04
  S53                    358.38   256.95     9.14   872.38     0.12     0.15     5.22     0.14     5.04
  S54                    235.30   166.21     9.12   802.97     0.19     0.15     5.20     0.15     5.04
  S55                    183.11   127.33     9.10   774.13     0.52     0.16     5.20     0.15     5.03
  S56                    422.81   298.74     9.16   909.02     0.38     0.15     5.23     0.14     5.04
  S57                    296.77   204.23     9.13   836.12     0.71     0.15     5.21     0.15     5.04
  S58                    383.03   271.12     9.15   886.26     0.36     0.15     5.22     0.14     5.04
  S59                    419.53   309.66     9.16   907.53     0.03     0.15     5.23     0.14     5.04
  S60                    260.10   180.79     9.12   816.04     0.61     0.15     5.21     0.15     5.04
  S61                    124.29    90.65     9.08   739.86     0.09     0.16     5.19     0.16     5.03
  S62                    370.49   274.52     9.15   879.31     0.02     0.15     5.22     0.14     5.04
  S63                    168.13   118.57     9.10   765.40     0.29     0.16     5.19     0.15     5.03
  S64                    263.53   184.83     9.12   817.90     0.33     0.15     5.21     0.15     5.04
  S65                    402.13   310.13     9.15   896.01     0.00     0.15     5.23     0.13     5.04
  S66                    239.68   164.12     9.12   805.51     0.61     0.15     5.20     0.15     5.04
  S67                    234.92   161.91     9.12   803.01     0.53     0.15     5.20     0.15     5.04
  S68                    300.76   209.14     9.13   838.73     0.71     0.15     5.21     0.15     5.04
  S69                    372.32   268.80     9.15   880.45     0.12     0.15     5.22     0.14     5.04
  S70                    396.80   293.81     9.15   894.43     0.04     0.15     5.23     0.14     5.04
  S71                    330.17   235.52     9.14   856.13     0.26     0.15     5.22     0.14     5.04
  S72                    271.43   188.85     9.12   822.04     0.60     0.15     5.21     0.15     5.04
  S73                    314.01   225.90     9.13   846.99     0.21     0.15     5.21     0.14     5.04
  S74                    305.07   217.91     9.13   841.78     0.23     0.15     5.21     0.15     5.04
  S75                    335.95   244.24     9.14   859.62     0.12     0.15     5.22     0.14     5.04
  S76                    382.71   274.37     9.15   886.33     0.16     0.15     5.22     0.14     5.04
  S77                    249.96   168.89     9.12   810.88     2.46     0.15     5.21     0.15     5.04
  S78                    220.88   153.49     9.11   795.55     0.64     0.16     5.20     0.15     5.03
  S79                    349.18   248.07     9.14   866.95     0.28     0.15     5.22     0.14     5.04
  S80                    305.51   215.27     9.13   841.79     0.42     0.15     5.21     0.15     5.04
  S81                    221.55   167.57     9.11   794.15     0.01     0.15     5.20     0.15     5.04
  S82                    208.37   148.26     9.11   788.26     0.21     0.16     5.20     0.15     5.03
  S83                    216.59   149.23     9.11   793.33     0.67     0.16     5.20     0.15     5.03
  S84                    215.93   161.17     9.11   791.45     0.02     0.15     5.20     0.15     5.03
  S85                    194.32   135.65     9.10   780.49     0.51     0.16     5.20     0.15     5.03
  S86                    185.65   133.92     9.10   775.06     0.20     0.16     5.20     0.15     5.03
  S87                    302.70   206.59     9.13   839.16     1.27     0.15     5.21     0.15     5.04
  S88                    229.99   161.64     9.11   800.21     0.29     0.15     5.20     0.15     5.04
  S89                    285.94   203.13     9.13   830.77     0.36     0.15     5.21     0.15     5.04
  S90                    326.75   235.94     9.14   854.32     0.12     0.15     5.22     0.14     5.04
  S91                    246.33   173.39     9.12   808.85     0.78     0.15     5.20     0.15     5.04
  S92                    240.40   174.16     9.12   805.45     0.13     0.15     5.20     0.15     5.04
  S93                    282.37   208.69     9.13   828.86     0.08     0.15     5.21     0.14     5.04
  S94                    282.38   203.91     9.13   828.91     0.08     0.15     5.21     0.15     5.04
  S95                    173.32   121.92     9.10   768.40     0.19     0.16     5.19     0.15     5.03
  S96                    266.18   196.35     9.12   819.61     0.07     0.15     5.21     0.15     5.04
  S97                    368.74   265.60     9.15   878.38     0.16     0.15     5.22     0.14     5.04
  S98                    339.68   241.42     9.14   861.51     0.29     0.15     5.22     0.14     5.04
  S99                    349.40   247.93     9.14   867.05     0.19     0.15     5.22     0.14     5.04
  S100                   350.00   248.85     9.14   867.43     0.20     0.15     5.22     0.14     5.04
  S102                   362.40   256.37     9.15   874.42     0.14     0.15     5.22     0.14     5.04
  S103                   214.70   147.55     9.11   792.28     0.53     0.16     5.20     0.15     5.03
  S101                   203.62   142.38     9.11   785.78     0.46     0.16     5.20     0.15     5.03
  S104                   280.03   191.90     9.13   826.45     1.29     0.15     5.21     0.15     5.04
  S105                   184.08   128.67     9.10   774.62     0.31     0.16     5.20     0.15     5.03
  S106                   201.96   140.41     9.11   784.90     0.41     0.16     5.20     0.15     5.03
  S107                   385.08   271.12     9.15   887.29     0.15     0.15     5.22     0.14     5.04
  S108                   290.36   204.51     9.13   833.12     0.34     0.15     5.21     0.15     5.04
  S109                   235.50   166.35     9.12   803.08     0.38     0.15     5.20     0.15     5.04
  S110                   255.24   178.65     9.12   813.55     0.34     0.15     5.21     0.15     5.04
  S111                   213.90   160.14     9.11   790.24     0.02     0.15     5.20     0.15     5.03
  S112                   257.32   183.14     9.12   814.67     0.19     0.15     5.21     0.15     5.04
  S113                   250.80   177.50     9.12   811.21     0.38     0.15     5.21     0.15     5.04
  
  
  ****************************
  Subcatchment Washoff Summary
  ****************************
  
  ----------------------------------
                          Bifenthrin
  Subcatchment                    kg
  ----------------------------------
  S1                           0.525
  S2                           0.806
  S3                           4.991
  S4                           0.445
  S5                           6.534
  S6                           0.768
  S7                           2.282
  S8                           1.828
  S9                           2.136
  S10                          2.330
  S11                          1.100
  S12                          0.954
  S13                          0.646
  S14                          7.720
  S15                          1.730
  S16                          0.138
  S17                          0.056
  S18                          2.552
  S19                          1.098
  S20                          3.888
  S21                          3.969
  S22                          2.281
  S23                          0.103
  S24                          1.902
  S25                          0.970
  S26                          2.053
  S27                          1.992
  S28                          4.300
  S29                          6.143
  S30                          1.280
  S31                          0.692
  S32                          1.708
  S33                          2.452
  S34                          1.825
  S35                          0.606
  S36                          0.075
  S37                          1.274
  S38                          1.219
  S39                          0.168
  S40                          1.227
  S41                          0.694
  S42                          2.455
  S43                          2.942
  S44                          3.360
  S45                          0.103
  S46                          0.895
  S47                          0.129
  S48                          3.141
  S49                          3.527
  S50                          3.750
  S51                          1.541
  S52                          0.246
  S53                          0.421
  S54                          1.674
  S55                          4.550
  S56                          1.665
  S57                          4.690
  S58                          0.817
  S59                          0.003
  S60                          4.289
  S61                          0.821
  S62                          0.082
  S63                          2.553
  S64                          2.410
  S65                          0.000
  S66                          4.817
  S67                          4.163
  S68                          5.268
  S69                          0.578
  S70                          0.257
  S71                          1.079
  S72                          4.863
  S73                          1.199
  S74                          2.053
  S75                          0.786
  S76                          1.278
  S77                         20.428
  S78                          5.650
  S79                          2.525
  S80                          3.760
  S81                          0.128
  S82                          1.786
  S83                          5.915
  S84                          0.196
  S85                          4.166
  S86                          1.803
  S87                          8.032
  S88                          2.258
  S89                          3.222
  S90                          1.043
  S91                          6.917
  S92                          1.119
  S93                          0.678
  S94                          0.757
  S95                          1.565
  S96                          0.647
  S97                          1.478
  S98                          2.629
  S99                          1.743
  S100                         1.294
  S102                         1.273
  S103                         4.691
  S101                         4.020
  S104                        11.302
  S105                         2.744
  S106                         3.614
  S107                         1.303
  S108                         3.054
  S109                         3.348
  S110                         3.022
  S111                         0.177
  S112                         1.588
  S113                         3.179
  ----------------------------------
  System                     274.911
  
  
  ******************
  Node Depth Summary
  ******************
  
  ---------------------------------------------------------------------------------
                                 Average  Maximum  Maximum  Time of Max    Reported
                                   Depth    Depth      HGL   Occurrence   Max Depth
  Node                 Type       Meters   Meters   Meters  days hr:min      Meters
  ---------------------------------------------------------------------------------
  J1                   JUNCTION     0.02     0.09    63.01   285  17:00        0.09
  J2                   JUNCTION     0.04     0.20    57.00   285  17:01        0.17
  J3                   JUNCTION     0.02     0.10    59.53   285  17:00        0.08
  J4                   JUNCTION     0.09     0.44    59.77   285  17:04        0.37
  J5                   JUNCTION     0.04     0.17   106.92   285  17:00        0.17
  J6                   JUNCTION     0.04     0.20    98.62   285  17:00        0.16
  J7                   JUNCTION     0.05     0.26    66.79   285  17:01        0.19
  J8                   JUNCTION     0.15     0.70    53.21   285  17:06        0.59
  J9                   JUNCTION     0.02     0.11    73.55   285  17:00        0.07
  J10                  JUNCTION     0.03     0.15    57.02   285  17:00        0.10
  J11                  JUNCTION     0.04     0.23    49.71   285  17:03        0.18
  J12                  JUNCTION     0.03     0.13    62.52   285  17:00        0.12
  J13                  JUNCTION     0.08     0.40    40.51   285  17:05        0.32
  J14                  JUNCTION     0.02     0.11    41.11   285  17:00        0.08
  J15                  JUNCTION     0.09     0.38    34.60     4  11:25        0.38
  J16                  JUNCTION     0.04     0.17    37.45     4  11:00        0.17
  J17                  JUNCTION     0.09     0.39    49.47   285  17:02        0.36
  J18                  JUNCTION     0.15     0.60    33.21     4  11:35        0.60
  J19                  JUNCTION     0.01     0.06    34.26     4  16:50        0.06
  J20                  JUNCTION     0.04     0.25    53.59   285  17:01        0.15
  J21                  JUNCTION     0.02     0.13    55.99   285  17:00        0.08
  J22                  JUNCTION     0.02     0.14    73.14   285  17:00        0.09
  J23                  JUNCTION     0.08     0.50    48.00   285  17:01        0.32
  J24                  JUNCTION     0.04     0.24    49.09   285  17:00        0.15
  J25                  JUNCTION     0.17     0.89    45.48   285  17:05        0.69
  J26                  JUNCTION     0.16     0.64    31.63     4  11:41        0.64
  J27                  JUNCTION     0.22     1.09    44.52   285  17:07        0.86
  J28                  JUNCTION     0.03     0.14    46.46   285  17:00        0.11
  J29                  JUNCTION     0.03     0.16    35.75   285  17:00        0.13
  J30                  JUNCTION     0.24     1.18    43.08   285  17:12        0.94
  J31                  JUNCTION     0.36     1.67    35.42   285  17:16        1.35
  J32                  JUNCTION     0.29     1.41    37.00   285  17:17        1.11
  J33                  JUNCTION     0.35     1.63    34.62   285  17:20        1.31
  J34                  JUNCTION     0.03     0.19    35.80   285  17:00        0.12
  J35                  JUNCTION     0.02     0.11    61.53   285  17:00        0.08
  J36                  JUNCTION     0.61     2.00    32.87     2  18:59        2.00
  J37                  JUNCTION     0.05     0.23    38.77   285  17:00        0.17
  J38                  JUNCTION     0.03     0.11    30.76   285  17:02        0.11
  J39                  JUNCTION     0.03     0.12    34.26   285  17:00        0.11
  J40                  JUNCTION     0.18     0.91    32.91   285  15:27        0.82
  J41                  JUNCTION     0.02     0.14    32.91   285  15:30        0.12
  J42                  JUNCTION     0.47     2.00    31.60     3  03:11        2.00
  J43                  JUNCTION     0.32     1.36    30.02   285  09:59        1.35
  J44                  JUNCTION     0.05     0.18    34.75   285  17:00        0.17
  J45                  JUNCTION     0.69     2.00    30.00     1  21:48        2.00
  J46                  JUNCTION     0.67     1.99    29.85   285  17:02        1.96
  J47                  JUNCTION     0.69     1.97    29.59   285  17:04        1.93
  J48                  JUNCTION     0.04     0.17    38.70   285  17:00        0.12
  J49                  JUNCTION     0.00     0.00    37.00     0  00:00        0.00
  J50                  JUNCTION     0.04     0.17    33.17   285  17:01        0.12
  J51                  JUNCTION     0.03     0.13    34.13   285  17:00        0.09
  J52                  JUNCTION     0.03     0.19    28.07   285  17:02        0.13
  J53                  JUNCTION     0.04     0.20    30.81   285  17:01        0.14
  J55                  JUNCTION     0.05     0.21    38.83   285  17:00        0.17
  J56                  JUNCTION     0.06     0.37    46.64   285  17:04        0.23
  J57                  JUNCTION     0.03     0.17    63.24   285  17:00        0.11
  J58                  JUNCTION     0.59     1.88    27.88   285  17:08        1.82
  J59                  JUNCTION     0.45     1.45    28.45   285  17:09        1.41
  J60                  JUNCTION     0.03     0.13    34.16   285  17:00        0.10
  J61                  JUNCTION     0.01     0.06    32.51   285  17:00        0.05
  J62                  JUNCTION     0.02     0.14    60.28   285  17:00        0.09
  J63                  JUNCTION     0.76     2.44    27.44   285  17:25        2.27
  J64                  JUNCTION     0.03     0.17    36.06   285  17:00        0.12
  J65                  JUNCTION     0.07     0.39    33.04   285  17:09        0.27
  J66                  JUNCTION     0.06     0.24    34.60   285  17:00        0.20
  J67                  JUNCTION     0.02     0.14    34.26   285  17:01        0.09
  J68                  JUNCTION     0.04     0.19    41.79   285  17:00        0.13
  J69                  JUNCTION     0.82     2.76    22.76   285  17:44        2.51
  J71                  JUNCTION     0.72     2.62    23.62   285  17:37        2.33
  J73                  JUNCTION     0.41     1.78    27.90   285  17:33        1.43
  J74                  JUNCTION     0.41     1.89    27.31   285  17:28        1.67
  J75                  JUNCTION     0.02     0.09    30.94   285  17:00        0.08
  J76                  JUNCTION     0.02     0.11    29.63   285  17:01        0.07
  J77                  JUNCTION     0.03     0.15    34.12   285  17:00        0.11
  J78                  JUNCTION     0.04     0.27    41.98   285  17:04        0.17
  J79                  JUNCTION     0.06     0.30    57.09   285  17:02        0.21
  J80                  JUNCTION     0.05     0.26    82.16   285  17:00        0.18
  J81                  JUNCTION     0.72     2.42    27.31   285  17:30        2.20
  J82                  JUNCTION     0.55     2.03    25.27   285  17:33        1.82
  J83                  JUNCTION     0.03     0.14    34.19     4  10:02        0.14
  J84                  JUNCTION     0.06     0.30    37.48   285  17:06        0.26
  J85                  JUNCTION     0.06     0.24    45.19   285  17:00        0.22
  J86                  JUNCTION     0.75     2.76    25.01   285  17:35        2.52
  J87                  JUNCTION     0.03     0.11    34.29     4  11:00        0.11
  J88                  JUNCTION     0.01     0.03    29.68   285  17:03        0.03
  J89                  JUNCTION     0.29     1.27    38.68   285  17:20        1.02
  J90                  JUNCTION     0.07     0.29    43.54   285  17:00        0.23
  J91                  JUNCTION     0.22     1.06    38.29   285  17:21        0.83
  J92                  JUNCTION     0.02     0.11    57.36   285  17:00        0.07
  J93                  JUNCTION     0.32     2.15    25.15   285  17:12        1.82
  J94                  JUNCTION     0.05     0.23    66.18   285  17:00        0.15
  J95                  JUNCTION     0.06     0.28    60.27   285  17:01        0.19
  J96                  JUNCTION     0.04     0.18    57.63   285  17:01        0.12
  J97                  JUNCTION     0.03     0.18    49.11   285  17:03        0.11
  J98                  JUNCTION     0.03     0.17    29.64   285  17:02        0.13
  J99                  JUNCTION     0.03     0.17    33.07   285  17:00        0.13
  J100                 JUNCTION     0.18     0.89    24.89   285  17:24        0.74
  J101                 JUNCTION     0.03     0.14    28.14   285  17:08        0.11
  J102                 JUNCTION     0.06     0.30    42.39   285  17:05        0.22
  J103                 JUNCTION     0.07     0.29    46.85   285  17:00        0.23
  J104                 JUNCTION     0.05     0.22    49.77   285  17:00        0.17
  J105                 JUNCTION     0.05     0.30    40.46   285  17:03        0.21
  J106                 JUNCTION     0.29     1.40    31.54   285  17:26        1.09
  J107                 JUNCTION     0.05     0.21    34.52   285  17:00        0.18
  J108                 JUNCTION     0.03     0.14    25.00   285  17:00        0.12
  J109                 JUNCTION     0.33     1.35    26.35   285  17:27        1.15
  J110                 JUNCTION     0.23     1.14    32.69   285  17:20        0.87
  J111                 JUNCTION     0.02     0.12    43.54   285  17:00        0.10
  J112                 JUNCTION     0.03     0.15    34.11   285  17:01        0.13
  J113                 JUNCTION     0.04     0.20    39.79   285  17:00        0.16
  J114                 JUNCTION     0.08     0.38    33.90   285  17:04        0.30
  J115                 JUNCTION     0.22     1.06    29.06   285  17:28        0.86
  J116                 JUNCTION     0.02     0.11    34.13   285  17:00        0.08
  J117                 JUNCTION     0.08     0.44    36.42   285  17:07        0.33
  J118                 JUNCTION     0.03     0.17    37.18   285  17:01        0.13
  J119                 JUNCTION     0.02     0.12    42.72   285  17:00        0.10
  J120                 JUNCTION     0.30     1.38    34.07   285  17:19        1.08
  J121                 JUNCTION     0.01     0.07    39.39   285  17:00        0.05
  J122                 JUNCTION     0.01     0.08    41.76   320  20:46        0.06
  J123                 JUNCTION     0.00     0.00    75.95     0  00:00        0.00
  J124                 JUNCTION     0.12     0.57    79.14   285  17:06        0.47
  J125                 JUNCTION     0.07     0.35    46.43   285  17:00        0.25
  J126                 JUNCTION     0.06     0.33    44.33   285  17:06        0.22
  J127                 JUNCTION     0.09     0.39    45.39   285  17:02        0.29
  J128                 JUNCTION     0.27     1.31    35.31   285  17:17        1.00
  J129                 JUNCTION     0.02     0.08    43.34   285  17:00        0.08
  J130                 JUNCTION     0.03     0.13    35.62   285  17:00        0.11
  J131                 JUNCTION     0.33     1.44    30.86   285  17:25        1.18
  J132                 JUNCTION     0.08     0.86    30.86   285  17:25        0.60
  J133                 JUNCTION     0.06     0.33    50.31   285  17:04        0.22
  J134                 JUNCTION     0.09     0.51    48.43   285  17:06        0.34
  J135                 JUNCTION     0.02     0.13    50.65   285  17:01        0.08
  J136                 JUNCTION     0.02     0.13    66.58   285  17:00        0.09
  J137                 JUNCTION     0.06     0.32    38.69   285  17:03        0.22
  J138                 JUNCTION     0.06     0.30    41.54   285  17:00        0.22
  J139                 JUNCTION     0.00     0.04    53.97   285  05:11        0.01
  J140                 JUNCTION     0.05     0.29    55.63   285  17:01        0.18
  J141                 JUNCTION     0.05     0.23    75.42   285  17:00        0.16
  J142                 JUNCTION     0.12     0.68    41.04   285  17:06        0.47
  J143                 JUNCTION     0.02     0.16    42.23   285  17:01        0.09
  J144                 JUNCTION     0.02     0.15    49.82   285  17:00        0.09
  J145                 JUNCTION     0.09     0.39    34.71   285  17:14        0.37
  J146                 JUNCTION     0.08     0.30    37.44   285  17:04        0.28
  J147                 JUNCTION     0.12     0.43    39.37   285  17:01        0.40
  J148                 JUNCTION     0.04     0.19    38.68   285  17:00        0.14
  J149                 JUNCTION     0.03     0.19    34.87   285  17:02        0.13
  J150                 JUNCTION     0.03     0.14    52.47   285  17:00        0.11
  J151                 JUNCTION     0.22     1.07    31.87   285  17:23        0.87
  J152                 JUNCTION     0.01     0.08    35.24   285  17:00        0.06
  J153                 JUNCTION     0.23     1.16    39.16   285  17:14        0.86
  J154                 JUNCTION     0.05     0.23    46.87   285  17:00        0.17
  J155                 JUNCTION     0.12     0.70    39.99   285  17:08        0.48
  J156                 JUNCTION     0.02     0.10    48.04   285  17:00        0.07
  J157                 JUNCTION     0.01     0.07    46.45   285  17:00        0.05
  J158                 JUNCTION     0.07     0.34    51.10   285  17:12        0.26
  J159                 JUNCTION     0.01     0.08    53.23   285  17:00        0.06
  J160                 JUNCTION     0.04     0.24    51.16   285  17:02        0.15
  J161                 JUNCTION     0.02     0.13    72.53   285  17:00        0.08
  J162                 JUNCTION     0.13     0.67    39.96   285  17:06        0.51
  J163                 JUNCTION     0.01     0.05    45.42   285  17:00        0.03
  J164                 JUNCTION     0.09     0.41    43.64   285  17:06        0.35
  J165                 JUNCTION     0.07     0.32    45.64   285  17:05        0.26
  J166                 JUNCTION     0.03     0.15    49.40   285  17:01        0.13
  J167                 JUNCTION     0.02     0.11    55.33   285  17:00        0.10
  J168                 JUNCTION     0.01     0.06    49.74   285  17:00        0.06
  J169                 JUNCTION     0.07     0.36    43.68    43  06:51        0.28
  J170                 JUNCTION     0.01     0.24    47.59    43  06:01        0.10
  J171                 JUNCTION     0.12     0.63    34.17   285  17:13        0.47
  J172                 JUNCTION     0.02     0.09    39.87   285  17:00        0.08
  J173                 JUNCTION     0.08     0.44    40.72   285  17:13        0.30
  J174                 JUNCTION     0.07     0.28    42.06   285  17:00        0.25
  J175                 JUNCTION     0.03     0.11    55.06   285  17:03        0.10
  J176                 JUNCTION     0.01     0.06    72.88   285  17:00        0.06
  J177                 JUNCTION     0.05     0.30    43.72   285  17:02        0.20
  J178                 JUNCTION     0.04     0.22    48.83   285  17:00        0.16
  J179                 JUNCTION     0.02     0.14    45.67   285  17:00        0.10
  J180                 JUNCTION     0.03     0.20    43.43   285  17:02        0.12
  J181                 JUNCTION     0.03     0.18    50.07   285  17:00        0.13
  J182                 JUNCTION     0.05     0.30    37.30   285  17:02        0.19
  J183                 JUNCTION     0.04     0.21    41.65   285  17:00        0.15
  J184                 JUNCTION     0.10     0.51    37.31   285  17:07        0.39
  J185                 JUNCTION     0.01     0.05    40.80     4  11:00        0.05
  J186                 JUNCTION     0.04     0.20    49.70   285  17:02        0.16
  J187                 JUNCTION     0.03     0.15    54.23   285  17:00        0.12
  J188                 JUNCTION     0.04     0.26    43.56   285  17:02        0.17
  J189                 JUNCTION     0.05     0.23    46.50   285  17:00        0.17
  J190                 JUNCTION     0.04     0.22    41.01   285  17:02        0.16
  J191                 JUNCTION     0.04     0.20    43.50   285  17:00        0.15
  J192                 JUNCTION     0.05     0.29    38.79   285  17:03        0.21
  J193                 JUNCTION     0.05     0.29    40.59   285  17:02        0.20
  J194                 JUNCTION     0.00     0.03    39.15   285  17:00        0.02
  J195                 JUNCTION     0.03     0.14    42.01   285  17:00        0.10
  J196                 JUNCTION     0.04     0.18    45.60   285  17:00        0.14
  J197                 JUNCTION     0.06     0.48    45.48   285  17:01        0.30
  O1                   OUTFALL      0.63     2.45    21.45   285  17:45        2.21
  
  
  *******************
  Node Inflow Summary
  *******************
  
  -------------------------------------------------------------------------------------------------
                                  Maximum  Maximum                  Lateral       Total        Flow
                                  Lateral    Total  Time of Max      Inflow      Inflow     Balance
                                   Inflow   Inflow   Occurrence      Volume      Volume       Error
  Node                 Type           CMS      CMS  days hr:min    10^6 ltr    10^6 ltr     Percent
  -------------------------------------------------------------------------------------------------
  J1                   JUNCTION     0.314    0.314   285  17:00         561         561      -0.000
  J2                   JUNCTION     0.000    0.609   285  17:00           0         961      -0.001
  J3                   JUNCTION     0.296    0.296   285  17:00         400         400      -0.000
  J4                   JUNCTION     0.099    2.818   285  17:01         102    4.33e+03       0.001
  J5                   JUNCTION     1.121    1.121   285  17:00    2.22e+03    2.22e+03      -0.001
  J6                   JUNCTION     1.193    1.193   285  17:00    1.58e+03    1.58e+03      -0.000
  J7                   JUNCTION     0.000    1.627   285  17:00           0    2.01e+03       0.000
  J8                   JUNCTION     0.784    4.133   285  17:00         846    6.14e+03       0.000
  J9                   JUNCTION     0.442    0.442   285  17:00         435         435      -0.000
  J10                  JUNCTION     0.517    0.517   285  17:00         569         569      -0.001
  J11                  JUNCTION     0.000    0.905   285  17:00           0    1.28e+03       0.000
  J12                  JUNCTION     0.395    0.395   285  17:00         710         710      -0.000
  J13                  JUNCTION     0.260    1.454   285  17:00         318    1.99e+03      -0.016
  J14                  JUNCTION     0.310    0.310   285  17:00         394         394      -0.000
  J15                  JUNCTION     0.000    1.775   285  17:02           0    3.61e+03       0.002
  J16                  JUNCTION     0.423    0.423     4  11:00         846         846      -0.001
  J17                  JUNCTION     1.539    1.539   285  17:00    2.77e+03    2.77e+03      -0.001
  J18                  JUNCTION     0.034    1.982     4  11:28          53    4.03e+03      -0.000
  J19                  JUNCTION     0.190    0.190     4  16:50         376         376       0.000
  J20                  JUNCTION     0.000    1.067   285  17:00           0    1.03e+03       0.000
  J21                  JUNCTION     0.437    0.437   285  17:00         414         414      -0.000
  J22                  JUNCTION     0.633    0.633   285  17:00         619         619      -0.000
  J23                  JUNCTION     0.324    2.336   285  17:00         270    2.24e+03      -0.002
  J24                  JUNCTION     0.958    0.958   285  17:00         943         943      -0.000
  J25                  JUNCTION     0.476    7.551   285  17:02         545    9.96e+03       0.001
  J26                  JUNCTION     0.114    2.365     4  11:26         226    4.82e+03      -0.004
  J27                  JUNCTION     0.230    7.968   285  17:05         235    1.06e+04      -0.000
  J28                  JUNCTION     0.305    0.305   285  17:00         440         440      -0.005
  J29                  JUNCTION     0.401    0.401   285  17:00         559         559      -0.005
  J30                  JUNCTION     0.460    8.840   285  17:05         477    1.17e+04      -0.004
  J31                  JUNCTION     1.977   14.330   285  17:11    2.43e+03    1.93e+04       0.002
  J32                  JUNCTION     1.288   11.480   285  17:07    1.56e+03    1.48e+04       0.006
  J33                  JUNCTION     0.198   14.808   285  17:16         266       2e+04      -0.004
  J34                  JUNCTION     0.456    0.456   285  17:00         493         493      -0.010
  J35                  JUNCTION     0.512    0.512   285  17:00         581         581      -0.004
  J36                  JUNCTION     0.000   22.272   285  17:22           0    3.03e+04      -0.018
  J37                  JUNCTION     0.505    0.505   285  17:00         527         527      -0.051
  J38                  JUNCTION     0.000    0.249   285  17:00           0         492      -0.011
  J39                  JUNCTION     0.250    0.250   285  17:00         492         492      -0.000
  J40                  JUNCTION     0.000    7.066   285  17:18           0    9.74e+03       0.027
  J41                  JUNCTION     0.034    0.137   285  15:29        64.1        66.7       0.063
  J42                  JUNCTION     0.399   14.196   285  17:00         655    3.06e+04       0.003
  J43                  JUNCTION     0.000    2.726     4  11:33           0    5.55e+03       0.006
  J44                  JUNCTION     0.411    0.411   285  17:00         737         737      -0.011
  J45                  JUNCTION     0.000   15.493     3  03:05           0    3.58e+04      -0.000
  J46                  JUNCTION     0.082   12.305    43  07:20          85    3.54e+04       0.002
  J47                  JUNCTION     0.000   12.999   285  17:01           0    3.64e+04       0.000
  J48                  JUNCTION     0.346    0.346   285  17:00         367         367      -0.001
  J49                  JUNCTION     0.000    0.000     0  00:00           0           0       0.000 ltr
  J50                  JUNCTION     0.000    0.345   285  17:00           0         367      -0.021
  J51                  JUNCTION     0.199    0.199   285  17:00         213         213      -0.031
  J52                  JUNCTION     0.000    0.662   285  17:01           0         796      -0.006
  J53                  JUNCTION     0.000    0.664   285  17:00           0         797       0.000
  J55                  JUNCTION     0.665    0.665   285  17:00         797         797      -0.000
  J56                  JUNCTION     0.000    1.655   285  17:00           0     1.6e+03      -0.006
  J57                  JUNCTION     0.871    0.871   285  17:00         831         831      -0.001
  J58                  JUNCTION     0.033   14.725   285  17:04        26.7     3.9e+04       0.000
  J59                  JUNCTION     0.000   14.050   285  17:04           0    3.81e+04       0.002
  J60                  JUNCTION     0.207    0.207   285  17:00         241         241      -0.028
  J61                  JUNCTION     0.041    0.041   285  17:00        48.2        48.2      -0.031
  J62                  JUNCTION     0.789    0.789   285  17:00         769         769      -0.001
  J63                  JUNCTION     0.000   15.510   285  17:02           0    3.99e+04       0.001
  J64                  JUNCTION     0.854    0.854   285  17:00         918         918      -0.025
  J65                  JUNCTION     0.000    1.360   285  17:01           0    1.56e+03      -0.027
  J66                  JUNCTION     0.806    0.806   285  17:00    1.14e+03    1.14e+03      -0.008
  J67                  JUNCTION     0.000    0.438   285  17:00           0         432      -0.000
  J68                  JUNCTION     0.439    0.439   285  17:00         432         432      -0.000
  J69                  JUNCTION     0.453   38.019   285  17:38         897    7.48e+04       0.001
  J71                  JUNCTION     0.000   37.651   285  17:36           0    7.13e+04       0.006
  J73                  JUNCTION     0.000   11.584   285  17:23           0     1.6e+04      -0.000
  J74                  JUNCTION     0.000   11.581   285  17:33           0    1.62e+04       0.004
  J75                  JUNCTION     0.154    0.154   285  17:00         253         253      -0.038
  J76                  JUNCTION     0.000    0.379   285  17:00           0         414      -0.013
  J77                  JUNCTION     0.380    0.380   285  17:00         412         412      -0.352
  J78                  JUNCTION     0.000    1.833   285  17:02           0    1.76e+03      -0.002
  J79                  JUNCTION     0.000    1.142   285  17:00           0    1.12e+03       0.001
  J80                  JUNCTION     1.145    1.145   285  17:00    1.12e+03    1.12e+03      -0.001
  J81                  JUNCTION     0.000   26.656   285  17:26           0    5.61e+04      -0.000
  J82                  JUNCTION     0.000   27.283   285  17:28           0    5.76e+04      -0.003
  J83                  JUNCTION     0.384    0.384     4  10:00         765         765      -0.010
  J84                  JUNCTION     0.000    0.908   285  17:00           0    1.47e+03      -0.029
  J85                  JUNCTION     0.912    0.912   285  17:00    1.47e+03    1.47e+03      -0.003
  J86                  JUNCTION     0.036   42.148   285  17:19        43.2    7.14e+04      -0.028
  J87                  JUNCTION     0.365    0.365     4  11:00         737         737      -0.014
  J88                  JUNCTION     0.044    0.044   285  17:00        66.1        66.1      -0.002
  J89                  JUNCTION     0.000    5.618   285  17:04           0    7.13e+03       0.014
  J90                  JUNCTION     0.977    0.977   285  17:00    1.28e+03    1.28e+03      -0.007
  J91                  JUNCTION     0.000    6.138   285  17:14           0    8.41e+03      -0.004
  J92                  JUNCTION     0.277    0.277   285  17:00         207         207      -0.023
  J93                  JUNCTION     0.011    9.042   285  17:20        7.98    1.38e+04       0.586
  J94                  JUNCTION     0.701    0.701   285  17:00         634         634      -0.000
  J95                  JUNCTION     0.000    0.700   285  17:00           0         634       0.000
  J96                  JUNCTION     0.000    0.698   285  17:01           0         634      -0.000
  J97                  JUNCTION     0.000    0.698   285  17:02           0         634       0.000
  J98                  JUNCTION     0.000    0.540   285  17:00           0         694      -0.019
  J99                  JUNCTION     0.541    0.541   285  17:00         693         693      -0.199
  J100                 JUNCTION     0.000    8.024   285  17:28           0    1.16e+04       0.065
  J101                 JUNCTION     0.000    0.881   285  17:05           0    1.25e+03      -0.000
  J102                 JUNCTION     0.000    1.026   285  17:00           0    1.29e+03      -0.010
  J103                 JUNCTION     1.031    1.031   285  17:00    1.29e+03    1.29e+03      -0.003
  J104                 JUNCTION     0.947    0.947   285  17:00    1.13e+03    1.13e+03      -0.002
  J105                 JUNCTION     0.000    0.945   285  17:00           0    1.13e+03       0.001
  J106                 JUNCTION     0.057   10.565   285  17:21        74.6    1.41e+04      -0.001
  J107                 JUNCTION     0.957    0.957   285  17:00    1.47e+03    1.47e+03      -0.015
  J108                 JUNCTION     0.153    0.153   285  17:00         252         252      -0.032
  J109                 JUNCTION     0.000    7.898   285  17:26           0    1.14e+04       0.001
  J110                 JUNCTION     0.000   10.525   285  17:18           0     1.4e+04       0.001
  J111                 JUNCTION     0.356    0.356   285  17:00         530         530      -0.306
  J112                 JUNCTION     0.000    0.356   285  17:00           0         532      -0.010
  J113                 JUNCTION     0.911    0.911   285  17:00    1.26e+03    1.26e+03      -0.002
  J114                 JUNCTION     0.000    0.909   285  17:00           0    1.26e+03       0.002
  J115                 JUNCTION     0.000    7.684   285  17:22           0     1.1e+04       0.001
  J116                 JUNCTION     0.332    0.332   285  17:00         436         436      -0.017
  J117                 JUNCTION     0.000    1.763   285  17:01           0    2.23e+03       0.154
  J118                 JUNCTION     0.000    0.367   285  17:00           0         494       0.089
  J119                 JUNCTION     0.367    0.367   285  17:00         490         490      -0.811
  J120                 JUNCTION     0.000   10.119   285  17:14           0    1.32e+04       0.002
  J121                 JUNCTION     0.182    0.182   285  17:00         238         238      -0.488
  J122                 JUNCTION     0.172    0.172   285  17:00         324         324     -10.851
  J123                 JUNCTION     0.000    0.000     0  00:00           0           0       0.000 ltr
  J124                 JUNCTION     3.675    3.675   285  17:00    5.18e+03    5.18e+03      -0.013
  J125                 JUNCTION     1.270    1.270   285  17:00    1.37e+03    1.37e+03      -0.001
  J126                 JUNCTION     0.000    1.259   285  17:02           0    1.37e+03       0.003
  J127                 JUNCTION     0.000    1.266   285  17:00           0    1.37e+03      -0.002
  J128                 JUNCTION     0.000    8.533   285  17:07           0     1.1e+04       0.004
  J129                 JUNCTION     0.344    0.344   285  17:00         579         579      -0.358
  J130                 JUNCTION     0.605    0.605   285  17:00         879         879      -0.080
  J131                 JUNCTION     0.043    7.321   285  17:10        30.8    1.01e+04       0.004
  J132                 JUNCTION     0.000    0.567   285  17:02           0         620      -0.000
  J133                 JUNCTION     0.000    1.818   285  17:01           0    1.99e+03       0.020
  J134                 JUNCTION     0.000    2.329   285  17:02           0    2.49e+03      -0.093
  J135                 JUNCTION     0.000    0.469   285  17:00           0         446      -0.006
  J136                 JUNCTION     0.470    0.470   285  17:00         444         444      -0.404
  J137                 JUNCTION     0.000    1.310   285  17:00           0    1.44e+03      -0.015
  J138                 JUNCTION     1.314    1.314   285  17:00    1.44e+03    1.44e+03      -0.002
  J139                 JUNCTION     0.062    0.062   285  17:00        47.4        47.4      -8.281
  J140                 JUNCTION     0.000    1.111   285  17:00           0     1.1e+03       0.000
  J141                 JUNCTION     1.112    1.112   285  17:00     1.1e+03     1.1e+03      -0.001
  J142                 JUNCTION     0.000    3.544   285  17:01           0    3.85e+03       0.003
  J143                 JUNCTION     0.000    0.520   285  17:00           0         445      -0.012
  J144                 JUNCTION     0.521    0.521   285  17:00         443         443      -0.442
  J145                 JUNCTION     0.000    1.490   285  17:04           0    2.62e+03      -0.051
  J146                 JUNCTION     0.000    1.497   285  17:02           0    2.62e+03      -0.001
  J147                 JUNCTION     1.506    1.506   285  17:00    2.62e+03    2.62e+03      -0.000
  J148                 JUNCTION     0.574    0.574   285  17:00         621         621      -0.006
  J149                 JUNCTION     0.000    0.572   285  17:00           0         621      -0.003
  J150                 JUNCTION     0.589    0.589   285  17:00         760         760      -0.018
  J151                 JUNCTION     0.000    5.726   285  17:03           0    7.76e+03       0.010
  J152                 JUNCTION     0.180    0.180   285  17:00         241         241      -0.018
  J153                 JUNCTION     0.000    7.075   285  17:06           0    8.76e+03      -0.006
  J154                 JUNCTION     1.434    1.434   285  17:00    1.66e+03    1.66e+03      -0.011
  J155                 JUNCTION     0.000    3.491   285  17:06           0    3.85e+03      -0.001
  J156                 JUNCTION     0.274    0.274   285  17:00         269         269      -0.028
  J157                 JUNCTION     0.165    0.165   285  17:00         160         160      -0.860
  J158                 JUNCTION     0.000    0.595   285  17:03           0         710       0.005
  J159                 JUNCTION     0.155    0.155   285  17:00         178         178      -2.049
  J160                 JUNCTION     0.000    0.451   285  17:00           0         418       0.003
  J161                 JUNCTION     0.452    0.452   285  17:00         417         417      -0.200
  J162                 JUNCTION     0.000    3.252   285  17:00           0    4.49e+03       0.094
  J163                 JUNCTION     0.162    0.162   285  17:00         153         153      -1.277
  J164                 JUNCTION     0.000    1.298   285  17:00           0    2.35e+03      -0.014
  J165                 JUNCTION     0.000    0.892   285  17:01           0    1.34e+03       0.002
  J166                 JUNCTION     0.000    0.379   285  17:00           0         622       0.452
  J167                 JUNCTION     0.379    0.379   285  17:00         605         605      -2.628
  J168                 JUNCTION     0.203    0.203   285  17:00         336         336      -3.714
  J169                 JUNCTION     0.000    1.697    43  06:51           0         729       9.746
  J170                 JUNCTION     0.235    0.235   285  17:00         400         400     -45.219
  J171                 JUNCTION     0.000    2.588   285  17:05           0    3.19e+03      -0.001
  J172                 JUNCTION     0.246    0.246   285  17:00         412         412      -0.015
  J173                 JUNCTION     0.000    1.428   285  17:02           0    1.48e+03      -0.019
  J174                 JUNCTION     1.725    1.725   285  17:00    2.68e+03    2.68e+03      -0.007
  J175                 JUNCTION     0.000    0.155   285  17:00           0         294       0.015
  J176                 JUNCTION     0.155    0.155   285  17:00         290         290      -1.475
  J177                 JUNCTION     0.000    1.037   285  17:00           0    1.15e+03       0.000
  J178                 JUNCTION     1.039    1.039   285  17:00    1.15e+03    1.15e+03      -0.011
  J179                 JUNCTION     0.979    0.979   285  17:00         984         984      -1.755
  J180                 JUNCTION     0.000    0.701   285  17:00           0         678      -0.003
  J181                 JUNCTION     0.702    0.702   285  17:00         677         677      -0.057
  J182                 JUNCTION     0.000    0.873   285  17:00           0         895      -0.003
  J183                 JUNCTION     0.874    0.874   285  17:00         895         895      -0.018
  J184                 JUNCTION     0.000    1.772   285  17:01           0     2.3e+03       0.233
  J185                 JUNCTION     0.146    0.146     4  11:00         294         294     -12.131
  J186                 JUNCTION     0.000    0.522   285  17:00           0         721       0.020
  J187                 JUNCTION     0.523    0.523   285  17:00         719         719      -0.240
  J188                 JUNCTION     0.000    0.741   285  17:00           0         808      -0.001
  J189                 JUNCTION     0.744    0.744   285  17:00         808         808      -0.002
  J190                 JUNCTION     0.000    0.582   285  17:00           0         724       0.001
  J191                 JUNCTION     0.583    0.583   285  17:00         724         724      -0.003
  J192                 JUNCTION     0.000    1.027   285  17:01           0     1.2e+03       0.001
  J193                 JUNCTION     0.000    0.693   285  17:00           0         802       0.000
  J194                 JUNCTION     0.058    0.058   285  17:00        42.9        42.9      -2.174
  J195                 JUNCTION     0.345    0.345   285  17:00         399         399      -0.160
  J196                 JUNCTION     0.695    0.695   285  17:00         802         802      -0.010
  J197                 JUNCTION     0.753    0.753   285  17:00    1.04e+03    1.04e+03      -0.002
  O1                   OUTFALL      0.000   37.744   285  17:45           0    7.48e+04       0.000
  
  
  **********************
  Node Surcharge Summary
  **********************
  
  Surcharging occurs when water rises above the top of the highest conduit.
  ---------------------------------------------------------------------
                                               Max. Height   Min. Depth
                                   Hours       Above Crown    Below Rim
  Node                 Type      Surcharged         Meters       Meters
  ---------------------------------------------------------------------
  J36                  JUNCTION       52.12          0.000        0.000
  J42                  JUNCTION       99.20          0.000        0.000
  J45                  JUNCTION      270.23          0.000        0.000
  J49                  JUNCTION     8759.00          0.000        0.000
  
  
  *********************
  Node Flooding Summary
  *********************
  
  Flooding refers to all water that overflows a node, whether it ponds or not.
  --------------------------------------------------------------------------
                                                             Total   Maximum
                                 Maximum   Time of Max       Flood    Ponded
                        Hours       Rate    Occurrence      Volume     Depth
  Node                 Flooded       CMS   days hr:min    10^6 ltr    Meters
  --------------------------------------------------------------------------
  J36                    51.94     8.474    285  17:22     314.385     0.000
  J42                    98.87     1.677    285  17:00     427.223     0.000
  J45                   270.19     5.097    285  17:06    3187.161     0.000
  
  
  ***********************
  Outfall Loading Summary
  ***********************
  
  -------------------------------------------------------------------------
                         Flow       Avg       Max       Total         Total
                         Freq      Flow      Flow      Volume    Bifenthrin
  Outfall Node           Pcnt       CMS       CMS    10^6 ltr            kg
  -------------------------------------------------------------------------
  O1                    99.98     5.501    37.744   74770.548       274.837
  -------------------------------------------------------------------------
  System                99.98     5.501    37.744   74770.548       274.837
  
  
  ********************
  Link Flow Summary
  ********************
  
  -----------------------------------------------------------------------------
                                 Maximum  Time of Max   Maximum    Max/    Max/
                                  |Flow|   Occurrence   |Veloc|    Full    Full
  Link                 Type          CMS  days hr:min     m/sec    Flow   Depth
  -----------------------------------------------------------------------------
  C1                   CONDUIT     0.313   285  17:00      1.31    0.00    0.07
  C2                   CONDUIT     0.295   285  17:00      1.18    0.01    0.07
  C3                   CONDUIT     1.107   285  17:01      2.24    0.01    0.15
  C4                   CONDUIT     1.615   285  17:02      2.49    0.02    0.17
  C5                   CONDUIT     1.185   285  17:00      2.92    0.02    0.12
  C6                   CONDUIT     2.777   285  17:04      2.33    0.06    0.28
  C7                   CONDUIT     0.602   285  17:01      0.68    0.01    0.22
  C8                   CONDUIT     0.442   285  17:00      1.39    0.01    0.09
  C9                   CONDUIT     0.514   285  17:00      1.57    0.01    0.10
  C10                  CONDUIT     0.391   285  17:00      1.37    0.01    0.09
  C11                  CONDUIT     0.890   285  17:03      1.53    0.02    0.16
  C12                  CONDUIT     0.310   285  17:00      0.68    0.01    0.13
  C13                  CONDUIT     1.501   285  17:03      2.07    0.05    0.19
  C14                  CONDUIT     0.423     4  11:00      0.86    0.01    0.14
  C15                  CONDUIT     0.190     4  16:50      0.31    0.00    0.17
  C16                  CONDUIT     1.767     4  11:25      1.82    0.04    0.25
  C17                  CONDUIT     0.436   285  17:00      1.35    0.01    0.09
  C18                  CONDUIT     0.630   285  17:00      1.92    0.01    0.10
  C19                  CONDUIT     1.058   285  17:01      1.49    0.02    0.19
  C20                  CONDUIT     0.957   285  17:00      1.36    0.02    0.19
  C21                  CONDUIT     1.982     4  11:35      1.48    0.10    0.31
  C22                  CONDUIT     4.061   285  17:06      2.20    0.13    0.40
  C23                  CONDUIT     2.317   285  17:01      1.51    0.07    0.35
  C24                  CONDUIT     0.302   285  17:00      0.32    0.01    0.31
  C26                  CONDUIT     7.472   285  17:06      3.01    0.20    0.49
  C27                  CONDUIT     0.397   285  17:01      0.78    0.01    0.19
[...]
  C64                     1.00   0.00  0.00  0.00  1.00  0.00  0.00  0.00  1.00  0.00
  C65                     1.00   0.00  0.00  0.00  0.00  1.00  0.00  0.00  0.00  0.00
  C66                     1.00   0.00  0.00  0.00  1.00  0.00  0.00  0.00  1.00  0.00
  C67                     1.00   0.00  0.00  0.00  1.00  0.00  0.00  0.00  0.95  0.00
  C68                     1.00   0.00  0.00  0.00  1.00  0.00  0.00  0.00  0.00  0.00
  C69                     1.00   0.00  0.00  0.00  1.00  0.00  0.00  0.00  0.10  0.00
  C70                     1.00   0.00  0.00  0.00  1.00  0.00  0.00  0.00  1.00  0.00
  C71                     1.00   0.00  0.10  0.00  0.07  0.83  0.00  0.00  0.24  0.00
  C72                     1.00   0.00  0.00  0.00  1.00  0.00  0.00  0.00  1.00  0.00
  C73                     1.00   0.00  0.00  0.00  0.00  1.00  0.00  0.00  1.00  0.00
  C74                     1.00   0.00  0.00  0.00  0.00  1.00  0.00  0.00  0.00  0.00
  C75                     1.00   0.00  0.00  0.00  1.00  0.00  0.00  0.00  0.00  0.00
  C76                     1.00   0.00  0.00  0.00  1.00  0.00  0.00  0.00  1.00  0.00
  C77                     1.00   0.00  0.00  0.00  0.10  0.90  0.00  0.00  0.30  0.00
  C78                     1.00   0.00  0.00  0.00  1.00  0.00  0.00  0.00  1.00  0.00
  C79                     1.00   0.00  0.00  0.00  1.00  0.00  0.00  0.00  1.00  0.00
  C80                     1.00   0.00  0.00  0.00  1.00  0.00  0.00  0.00  0.01  0.00
  C81                     1.00   0.00  0.00  0.00  1.00  0.00  0.00  0.00  0.95  0.00
  C82                     1.00   0.00  0.00  0.00  1.00  0.00  0.00  0.00  1.00  0.00
  C83                     1.00   0.00  0.00  0.00  0.99  0.01  0.00  0.00  1.00  0.00
  C84                     1.00   0.00  0.00  0.00  1.00  0.00  0.00  0.00  0.00  0.00
  C85                     1.00   0.00  0.00  0.00  1.00  0.00  0.00  0.00  0.01  0.00
  C86                     1.00   0.00  0.00  0.00  1.00  0.00  0.00  0.00  1.00  0.00
  C87                     1.00   0.00  0.00  0.00  1.00  0.00  0.00  0.00  1.00  0.00
  C88                     1.00   0.00  0.00  0.00  1.00  0.00  0.00  0.00  0.91  0.00
  C89                     1.00   0.00  0.00  0.00  0.11  0.89  0.00  0.00  1.00  0.00
  C90                     1.00   0.00  0.00  0.00  0.00  1.00  0.00  0.00  0.00  0.00
  C91                     1.00   0.00  0.00  0.00  0.00  1.00  0.00  0.00  0.00  0.00
  C92                     1.00   0.00  0.00  0.00  0.75  0.25  0.00  0.00  1.00  0.00
  C93                     1.00   0.00  0.07  0.00  0.14  0.79  0.00  0.00  0.45  0.00
  C94                     1.00   0.00  0.00  0.00  1.00  0.00  0.00  0.00  1.00  0.00
  C95                     1.00   0.00  0.00  0.00  0.48  0.52  0.00  0.00  0.98  0.00
  C96                     1.00   0.00  0.00  0.00  1.00  0.00  0.00  0.00  1.00  0.00
  C97                     1.00   0.00  0.00  0.00  0.24  0.76  0.00  0.00  0.05  0.00
  C98                     1.00   0.00  0.00  0.00  1.00  0.00  0.00  0.00  1.00  0.00
  C99                     1.00   0.00  0.00  0.00  0.08  0.92  0.00  0.00  0.63  0.00
  C100                    1.00   0.00  0.00  0.00  1.00  0.00  0.00  0.00  1.00  0.00
  C101                    1.00   0.00  0.00  0.00  1.00  0.00  0.00  0.00  1.00  0.00
  C102                    1.00   0.00  0.00  0.00  1.00  0.00  0.00  0.00  1.00  0.00
  C103                    1.00   0.00  0.00  0.00  1.00  0.00  0.00  0.00  0.00  0.00
  C104                    1.00   0.00  0.00  0.00  1.00  0.00  0.00  0.00  1.00  0.00
  C105                    1.00   0.00  0.00  0.00  0.99  0.01  0.00  0.00  1.00  0.00
  C106                    1.00   0.00  0.10  0.00  0.09  0.82  0.00  0.00  0.70  0.00
  C107                    1.00   0.00  0.00  0.00  1.00  0.00  0.00  0.00  1.00  0.00
  C108                    1.00   0.00  0.00  0.00  0.41  0.59  0.00  0.00  1.00  0.00
  C109                    1.00   0.00  0.00  0.00  0.52  0.48  0.00  0.00  0.00  0.00
  C110                    1.00   0.00  0.00  0.00  1.00  0.00  0.00  0.00  1.00  0.00
  C111                    1.00   0.00  0.00  0.00  1.00  0.00  0.00  0.00  1.00  0.00
  C112                    1.00   0.00  0.13  0.00  0.07  0.79  0.00  0.00  0.66  0.00
  C113                    1.00   0.00  0.00  0.00  1.00  0.00  0.00  0.00  1.00  0.00
  C114                    1.00   0.00  0.00  0.00  1.00  0.00  0.00  0.00  0.00  0.00
  C115                    1.00   0.00  0.12  0.00  0.88  0.00  0.00  0.00  1.00  0.00
  C116                    1.00   0.00  0.27  0.00  0.69  0.04  0.00  0.00  0.95  0.00
  C117                    1.00   0.00  0.00  0.00  1.00  0.00  0.00  0.00  1.00  0.00
  C118                    1.00   0.00  1.00  0.00  0.00  0.00  0.00  0.00  0.00  0.00
  C119                    1.00   0.00  0.00  0.00  1.00  0.00  0.00  0.00  1.00  0.00
  C120                    1.00   0.00  0.00  0.00  1.00  0.00  0.00  0.00  1.00  0.00
  C121                    1.00   0.00  0.00  0.00  0.90  0.10  0.00  0.00  1.00  0.00
  C122                    1.00   0.00  0.00  0.00  0.54  0.46  0.00  0.00  0.05  0.00
  C123                    1.00   0.00  0.00  0.00  1.00  0.00  0.00  0.00  1.00  0.00
  C124                    1.00   0.00  0.16  0.00  0.84  0.00  0.00  0.00  1.00  0.00
  C125                    1.00   0.00  0.05  0.00  0.94  0.00  0.00  0.00  1.00  0.00
  C126                    1.00   0.00  0.00  0.00  1.00  0.00  0.00  0.00  0.00  0.00
  C127                    1.00   0.00  0.00  0.00  1.00  0.00  0.00  0.00  0.94  0.00
  C128                    1.00   0.00  0.12  0.00  0.02  0.86  0.00  0.00  0.46  0.00
  C129                    1.00   0.00  0.00  0.00  1.00  0.00  0.00  0.00  1.00  0.00
  C130                    1.00   0.00  0.00  0.00  0.36  0.64  0.00  0.00  0.40  0.00
  C131                    1.00   0.00  0.00  0.00  1.00  0.00  0.00  0.00  1.00  0.00
  C132                    1.00   0.00  0.00  0.00  0.66  0.34  0.00  0.00  1.00  0.00
  C133                    1.00   0.00  0.40  0.00  0.60  0.00  0.00  0.00  1.00  0.00
  C134                    1.00   0.00  0.00  0.00  0.00  1.00  0.00  0.00  0.06  0.00
  C135                    1.00   0.00  0.00  0.00  0.80  0.20  0.00  0.00  1.00  0.00
  C136                    1.00   0.00  0.13  0.00  0.03  0.84  0.00  0.00  0.45  0.00
  C137                    1.00   0.00  0.00  0.00  1.00  0.00  0.00  0.00  1.00  0.00
  C138                    1.00   0.00  0.00  0.00  1.00  0.00  0.00  0.00  1.00  0.00
  C139                    1.00   0.00  0.00  0.00  0.27  0.73  0.00  0.00  0.68  0.00
  C140                    1.00   0.00  0.00  0.00  0.50  0.50  0.00  0.00  0.00  0.00
  C141                    1.00   0.00  0.02  0.00  0.33  0.65  0.00  0.00  0.60  0.00
  C142                    1.00   0.00  0.00  0.00  1.00  0.00  0.00  0.00  1.00  0.00
  C143                    1.00   0.00  0.00  0.00  1.00  0.00  0.00  0.00  1.00  0.00
  C144                    1.00   0.00  0.02  0.00  0.98  0.00  0.00  0.00  1.00  0.00
  C145                    1.00   0.00  0.00  0.00  1.00  0.00  0.00  0.00  1.00  0.00
  C146                    1.00   0.00  0.00  0.00  1.00  0.00  0.00  0.00  1.00  0.00
  C147                    1.00   0.00  0.00  0.00  1.00  0.00  0.00  0.00  1.00  0.00
  C148                    1.00   0.00  0.00  0.00  1.00  0.00  0.00  0.00  1.00  0.00
  C149                    1.00   0.00  0.00  0.00  1.00  0.00  0.00  0.00  1.00  0.00
  C150                    1.00   0.00  0.00  0.00  1.00  0.00  0.00  0.00  1.00  0.00
  C151                    1.00   0.00  0.17  0.00  0.83  0.00  0.00  0.00  1.00  0.00
  C152                    1.00   0.00  0.00  0.00  1.00  0.00  0.00  0.00  0.99  0.00
  C153                    1.00   0.00  0.00  0.00  1.00  0.00  0.00  0.00  0.01  0.00
  C154                    1.00   0.00  0.18  0.00  0.76  0.06  0.00  0.00  0.89  0.00
  C155                    1.00   0.00  0.00  0.00  1.00  0.00  0.00  0.00  1.00  0.00
  C156                    1.00   0.00  0.08  0.00  0.40  0.52  0.00  0.00  1.00  0.00
  C157                    1.00   0.00  0.25  0.00  0.75  0.00  0.00  0.00  1.00  0.00
  C158                    1.00   0.00  0.00  0.00  1.00  0.00  0.00  0.00  1.00  0.00
  C159                    1.00   0.00  0.23  0.00  0.76  0.01  0.00  0.00  1.00  0.00
  C160                    1.00   0.00  0.00  0.00  1.00  0.00  0.00  0.00  1.00  0.00
  C162                    1.00   0.00  0.00  0.00  1.00  0.00  0.00  0.00  1.00  0.00
  C163                    1.00   0.00  0.16  0.00  0.08  0.76  0.00  0.00  0.62  0.00
  C164                    1.00   0.00  0.30  0.00  0.39  0.31  0.00  0.00  1.00  0.00
  C165                    1.00   0.00  0.00  0.00  1.00  0.00  0.00  0.00  0.28  0.00
  C166                    1.00   0.00  0.00  0.00  1.00  0.00  0.00  0.00  1.00  0.00
  C167                    1.00   0.00  0.01  0.00  0.99  0.00  0.00  0.00  1.00  0.00
  C168                    1.00   0.00  0.00  0.00  1.00  0.00  0.00  0.00  1.00  0.00
  C169                    1.00   0.00  0.00  0.00  1.00  0.00  0.00  0.00  1.00  0.00
  C170                    1.00   0.00  0.15  0.00  0.06  0.79  0.00  0.00  0.76  0.00
  C171                    1.00   0.00  0.00  0.00  1.00  0.00  0.00  0.00  1.00  0.00
  C172                    1.00   0.00  0.01  0.00  0.24  0.75  0.00  0.00  0.96  0.00
  C173                    1.00   0.00  0.00  0.00  1.00  0.00  0.00  0.00  1.00  0.00
  C174                    1.00   0.00  0.00  0.00  1.00  0.00  0.00  0.00  1.00  0.00
  C175                    1.00   0.00  0.16  0.00  0.80  0.03  0.00  0.00  1.00  0.00
  C176                    1.00   0.00  0.05  0.00  0.17  0.78  0.00  0.00  0.57  0.00
  C177                    1.00   0.00  0.00  0.00  1.00  0.00  0.00  0.00  1.00  0.00
  C178                    1.00   0.00  0.02  0.00  0.31  0.67  0.00  0.00  0.95  0.00
  C179                    1.00   0.00  0.00  0.00  1.00  0.00  0.00  0.00  1.00  0.00
  C180                    1.00   0.00  0.26  0.00  0.71  0.03  0.00  0.00  1.00  0.00
  C181                    1.00   0.00  0.00  0.00  1.00  0.00  0.00  0.00  0.99  0.00
  C182                    1.00   0.00  0.07  0.00  0.13  0.79  0.00  0.00  0.78  0.00
  C183                    1.00   0.00  0.00  0.00  1.00  0.00  0.00  0.00  1.00  0.00
  C184                    1.00   0.00  0.00  0.00  0.46  0.54  0.00  0.00  0.61  0.00
  C185                    1.00   0.00  0.00  0.00  1.00  0.00  0.00  0.00  1.00  0.00
  C186                    1.00   0.00  0.01  0.00  0.41  0.58  0.00  0.00  0.66  0.00
  C187                    1.00   0.00  0.00  0.00  1.00  0.00  0.00  0.00  1.00  0.00
  C188                    1.00   0.00  0.00  0.00  1.00  0.00  0.00  0.00  1.00  0.00
  C189                    1.00   0.00  0.40  0.00  0.60  0.00  0.00  0.00  1.00  0.00
  C190                    1.00   0.00  0.08  0.00  0.82  0.10  0.00  0.00  0.99  0.00
  C191                    1.00   0.00  0.03  0.00  0.33  0.64  0.00  0.00  0.94  0.00
  C192                    1.00   0.00  0.00  0.00  1.00  0.00  0.00  0.00  0.99  0.00
  C193                    1.00   0.00  0.00  0.00  1.00  0.00  0.00  0.00  0.40  0.00
  C194                    1.00   0.00  0.00  0.00  1.00  0.00  0.00  0.00  0.85  0.00
  C195                    1.00   0.00  0.00  0.00  1.00  0.00  0.00  0.00  0.98  0.00
  
  
  *************************
  Conduit Surcharge Summary
  *************************
  
  ----------------------------------------------------------------------------
                                                           Hours        Hours 
                         --------- Hours Full --------   Above Full   Capacity
  Conduit                Both Ends  Upstream  Dnstream   Normal Flow   Limited
  ----------------------------------------------------------------------------
  C35                         0.01      0.01     52.01      0.01         0.01
  C36                         0.01      0.01     52.01      0.01         0.01
  C38                         0.01      0.01     52.01      0.01         0.01
  C39                         0.01      0.01     52.01      0.01         0.01
  C40                        49.58     52.01     99.07      3.23         0.01
  C43                         0.01      0.01    270.19      0.01         0.01
  C44                        99.07     99.07    270.19     50.41         0.01
  C45                         0.01    270.19      0.01    306.47         0.01
  C49                         0.01      0.01      0.01      2.63         0.01
  
  
  ***************************
  Link Pollutant Load Summary
  ***************************
  
  ----------------------------------
                          Bifenthrin
  Link                            kg
  ----------------------------------
  C1                           0.541
  C2                           0.820
  C3                           5.684
  C4                           8.542
  C5                           6.843
  C6                          14.194
  C7                           1.519
  C8                           1.890
  C9                           2.238
  C10                          2.521
  C11                          4.781
  C12                          1.118
  C13                          8.498
  C14                          0.704
  C15                          0.140
  C16                          8.591
  C17                          1.769
  C18                          2.705
  C19                          4.535
  C20                          3.958
  C21                          8.994
  C22                         19.429
  C23                          9.786
  C24                          2.479
  C26                         34.033
  C27                          2.306
  C28                         37.431
  C29                          8.955
  C30                         44.227
  C31                         55.454
  C32                         69.787
  C33                          2.324
  C34                          2.994
  C35                         74.226
  C36                          2.640
  C37                          0.623
  C38                         39.451
  C39                          0.256
  C40                        114.270
  C41                         12.060
  C42                          1.310
  C43                         12.841
  C44                        113.831
  C45                        124.804
  C46                          0.939
  C47                          1.248
  C48                          1.569
  C49                        134.825
  C50                          0.941
  C51                          2.477
  C52                          2.505
  C53                          8.603
  C54                          3.566
  C55                          2.713
  C56                        136.855
  C57                        141.748
  C58                          1.073
  C59                          0.440
  C60                          3.350
  C61                        145.955
  C62                          4.307
  C63                          8.967
  C64                          4.317
  C65                          1.555
  C66                          1.575
  C67                        268.207
  C68                        274.837
  C69                         64.356
  C70                          0.619
  C71                          1.707
  C72                          1.930
  C73                          4.677
  C74                          4.650
  C75                        212.809
  C76                          4.468
  C77                          4.789
  C78                          7.935
  C79                          1.103
  C80                        268.605
  C81                        216.486
  C82                          0.005
  C83                          4.454
  C84                         30.119
  C85                         35.291
  C86                          0.906
  C87                          7.502
  C88                         53.894
  C89                          2.599
  C90                          2.587
  C91                          2.585
  C92                          2.691
  C93                          2.442
  C94                          3.250
  C95                         45.868
  C96                          5.004
  C97                          4.927
  C98                          5.860
  C99                          4.242
  C100                         4.690
  C101                         6.403
  C102                        59.455
  C103                        45.613
  C104                         0.722
  C105                        56.123
  C106                         1.099
  C107                         1.280
  C108                         4.963
  C109                         5.128
  C110                         1.395
  C111                        45.140
  C112                         2.082
  C113                         2.148
  C114                        54.510
  C115                         0.894
  C116                         1.461
  C117                        10.321
  C118                         0.000
  C119                        28.353
  C120                         6.176
  C121                         5.800
  C122                         5.825
  C123                        45.663
  C124                         2.718
  C125                         3.912
  C126                        41.281
  C127                         2.557
  C128                         1.835
  C129                         1.879
  C130                         6.039
  C131                         7.608
  C132                         8.073
  C133                         0.288
  C134                         4.212
  C135                         4.366
  C136                         1.845
  C137                         1.908
  C138                        16.171
  C139                         8.183
  C140                         8.252
  C141                         2.314
  C142                         2.423
  C143                        10.964
  C144                         3.430
  C145                        32.222
  C146                         1.256
  C147                        37.609
  C148                         7.650
  C149                        16.300
  C150                         1.413
  C151                         0.747
  C152                        16.058
  C153                         3.200
  C154                         0.786
  C155                         1.638
  C156                         1.661
  C157                         0.714
  C158                        18.003
  C159                         1.565
  C160                         5.968
  C162                         2.808
  C163                         2.650
  C164                         4.900
  C165                         1.370
  C166                        14.106
  C167                         1.478
  C168                        12.286
  C169                         8.871
  C170                         1.303
  C171                         1.692
  C172                         4.769
  C173                         5.164
  C174                         9.396
  C175                         4.116
  C176                         2.808
  C177                         2.977
  C178                         3.690
  C179                         4.066
  C180                         1.445
  C181                        10.191
  C182                         3.096
  C183                         3.324
  C184                         3.445
  C185                         3.614
  C186                         3.084
  C187                         3.437
  C188                         4.964
  C189                         0.229
  C190                         1.644
  C191                         3.254
  C192                         3.383
  C193                       147.814
  C194                        64.383
  C195                         4.277
  

  Analysis begun on:  Tue Sep 29 10:28:08 2020
  Analysis ended on:  Tue Sep 29 10:30:31 2020
  Total elapsed time: 00:02:23